  347
Geometry Step: 0
    H     34.74248065     22.28371768      2.86205550      1.05337888
    H     30.88455908     22.29858048      2.86176854      1.05430532
    H     27.02562123     22.28370537      2.86223884      1.05265424
    H     23.16668334     22.29858049      2.86176802      1.05430547
    H     19.30876167     22.28371767      2.86205477      1.05337910
    H     15.44476111     22.28946241      2.86099526      1.05818641
    H     38.60648112     22.28946244      2.86099555      1.05818632
    H     32.81844095     18.94773675      2.86219460      1.05289521
    H     28.95331969     18.94796610      2.86229570      1.05252053
    H     25.09792280     18.94796616      2.86229539      1.05252061
    H     21.23280139     18.94773674      2.86219387      1.05289543
    H     17.38174015     18.94601314      2.86205500      1.05337899
    H     13.51281052     18.93062357      2.86138790      1.05444238
    H     36.66950211     18.94601316      2.86205560      1.05337881
    H     30.88607947     15.60032736      2.86229531      1.05252053
    H     27.02562118     15.60325021      2.86157130      1.05483488
    H     23.16516290     15.60032725      2.86229490      1.05252065
    H     19.29782587     15.59752226      2.86176755      1.05430572
    H     15.44584249     15.59298879      2.86251580      1.05193539
    H     11.57977866     15.59298883      2.86251602      1.05193532
    H     34.75341649     15.59752231      2.86176801      1.05430559
    H     28.95838450     12.26145623      2.86229506      1.05252034
    H     25.09285789     12.26145622      2.86229496      1.05252037
    H     21.24017621     12.26302171      2.86223784      1.05265449
    H     17.37005387     12.26368600      2.86259096      1.05152392
    H     13.51281059     12.25748500      2.86142766      1.05444707
    H      9.65556730     12.26368602      2.86259113      1.05152387
    H     32.81106613     12.26302178      2.86223805      1.05265443
    H     27.02562116      8.91427743      2.86219378      1.05289587
    H     23.15675825      8.91364618      2.86176770      1.05430561
    H     19.30568787      8.91106266      2.86259087      1.05152409
    H     15.44495290      8.91714785      2.86244703      1.05190212
    H     11.58066829      8.91714788      2.86244700      1.05190213
    H      7.71993332      8.91106269      2.86259080      1.05152411
    H     30.89448410      8.91364619      2.86176765      1.05430563
    H     25.09859517      5.58001523      2.86205484      1.05337957
    H     21.22684311      5.57999354      2.86251589      1.05193484
    H     17.37170263      5.57369031      2.86142748      1.05444746
    H     13.51281063      5.57057595      2.86244719      1.05190235
    H      9.65391862      5.57369035      2.86142725      1.05444754
    H      5.79877805      5.57999366      2.86251555      1.05193496
    H     28.95264711      5.58001527      2.86205471      1.05337961
    H     23.15080290      2.23712357      2.86138802      1.05444185
    H     19.29381548      2.23189275      2.86251627      1.05193467
    H     15.44844970      2.23012459      2.86259162      1.05152393
    H     11.57717153      2.23012460      2.86259139      1.05152400
    H      7.73180582      2.23189273      2.86251571      1.05193486
    H      3.87481817      2.23712358      2.86138757      1.05444201
    H     27.02562109      2.23082107      2.86099538      1.05818631
   Si     34.74722723     22.29035666      4.36424935      3.90877652
   Si     30.88642420     22.29035666      4.36424935      3.90949212
   Si     27.02562118     22.29035666      4.36424935      3.90824697
   Si     23.16481815     22.29035666      4.36424935      3.90949207
   Si     19.30401513     22.29035666      4.36424935      3.90877647
   Si     15.44321210     22.29035666      4.36424935      3.90216424
   Si     38.60803025     22.29035666      4.36424935      3.90216429
   Si     32.81682571     18.94680316      4.36424935      3.90816162
   Si     28.95602269     18.94680316      4.36424935      3.90828941
   Si     25.09521966     18.94680316      4.36424935      3.90828943
   Si     21.23441664     18.94680316      4.36424935      3.90816161
   Si     17.37361361     18.94680316      4.36424935      3.90877605
   Si     13.51281059     18.94680316      4.36424935      3.91531276
   Si     36.67762874     18.94680316      4.36424935      3.90877608
   Si     30.88642420     15.60324966      4.36424935      3.90828948
   Si     27.02562118     15.60324966      4.36424935      3.90904765
   Si     23.16481815     15.60324966      4.36424935      3.90828950
   Si     19.30401513     15.60324966      4.36424935      3.90949232
   Si     15.44321210     15.60324966      4.36424935      3.90856113
   Si     11.58240908     15.60324966      4.36424935      3.90856113
   Si     34.74722723     15.60324966      4.36424935      3.90949237
   Si     28.95602269     12.25969616      4.36424935      3.90828924
   Si     25.09521966     12.25969616      4.36424935      3.90828924
   Si     21.23441664     12.25969616      4.36424935      3.90824750
   Si     17.37361361     12.25969616      4.36424935      3.90921839
   Si     13.51281059     12.25969616      4.36424935      3.91029481
   Si      9.65200756     12.25969616      4.36424935      3.90921838
   Si     32.81682571     12.25969616      4.36424935      3.90824750
   Si     27.02562118      8.91614266      4.36424935      3.90816115
   Si     23.16481815      8.91614266      4.36424935      3.90949210
   Si     19.30401513      8.91614266      4.36424935      3.90921821
   Si     15.44321210      8.91614266      4.36424935      3.90809104
   Si     11.58240908      8.91614266      4.36424935      3.90809103
   Si      7.72160605      8.91614266      4.36424935      3.90921819
   Si     30.88642420      8.91614266      4.36424935      3.90949211
   Si     25.09521966      5.57258916      4.36424935      3.90877629
   Si     21.23441664      5.57258916      4.36424935      3.90856174
   Si     17.37361361      5.57258916      4.36424935      3.91029498
   Si     13.51281059      5.57258916      4.36424935      3.90809072
   Si      9.65200756      5.57258916      4.36424935      3.91029496
   Si      5.79120454      5.57258916      4.36424935      3.90856173
   Si     28.95602269      5.57258916      4.36424935      3.90877627
   Si     23.16481815      2.22903567      4.36424935      3.91531352
   Si     19.30401513      2.22903567      4.36424935      3.90856162
   Si     15.44321210      2.22903567      4.36424935      3.90921816
   Si     11.58240908      2.22903567      4.36424935      3.90921816
   Si      7.72160605      2.22903567      4.36424935      3.90856161
   Si      3.86080303      2.22903567      4.36424935      3.91531351
   Si     27.02562118      2.22903567      4.36424935      3.90216412
   Si     32.81682571     21.17583883      5.15233247      4.03617170
   Si     28.95602269     21.17583883      5.15233247      4.03713545
   Si     25.09521966     21.17583883      5.15233247      4.03713511
   Si     21.23441664     21.17583883      5.15233247      4.03617074
   Si     17.37361361     21.17583883      5.15233247      4.03747824
   Si     13.51281059     21.17583883      5.15233247      4.01902289
   Si     36.67762874     21.17583883      5.15233247      4.03747903
   Si     30.88642420     17.83228533      5.15233247      4.02377655
   Si     27.02562118     17.83228533      5.15233247      4.03576144
   Si     23.16481815     17.83228533      5.15233247      4.02377583
   Si     19.30401513     17.83228533      5.15233247      4.03617024
   Si     15.44321210     17.83228533      5.15233247      4.03780116
   Si     11.58240908     17.83228533      5.15233247      4.03780153
   Si     34.74722723     17.83228533      5.15233247      4.03617112
   Si     28.95602269     14.48873183      5.15233247      4.03576352
   Si     25.09521966     14.48873183      5.15233247      4.03576323
   Si     21.23441664     14.48873183      5.15233247      4.03713386
   Si     17.37361361     14.48873183      5.15233247      4.02046255
   Si     13.51281059     14.48873183      5.15233247      4.03673544
   Si      9.65200756     14.48873183      5.15233247      4.02046284
   Si     32.81682571     14.48873183      5.15233247      4.03713441
   Si     27.02562118     11.14517833      5.15233247      4.02377986
   Si     23.16481815     11.14517833      5.15233247      4.03713429
   Si     19.30401513     11.14517833      5.15233247      4.04088857
   Si     15.44321210     11.14517833      5.15233247      4.03704701
   Si     11.58240908     11.14517833      5.15233247      4.03704706
   Si      7.72160605     11.14517833      5.15233247      4.04088872
   Si     30.88642420     11.14517833      5.15233247      4.03713449
   Si     25.09521966      7.80162483      5.15233247      4.03617001
   Si     21.23441664      7.80162483      5.15233247      4.02046026
   Si     17.37361361      7.80162483      5.15233247      4.03704502
   Si     13.51281059      7.80162483      5.15233247      4.02071239
   Si      9.65200756      7.80162483      5.15233247      4.03704482
   Si      5.79120454      7.80162483      5.15233247      4.02046006
   Si     28.95602269      7.80162483      5.15233247      4.03616993
   Si     23.16481815      4.45807133      5.15233247      4.03780245
   Si     19.30401513      4.45807133      5.15233247      4.03673315
   Si     15.44321210      4.45807133      5.15233247      4.03704448
   Si     11.58240908      4.45807133      5.15233247      4.03704423
   Si      7.72160605      4.45807133      5.15233247      4.03673247
   Si      3.86080303      4.45807133      5.15233247      4.03780192
   Si     27.02562118      4.45807133      5.15233247      4.03747560
   Si     21.23441664      1.11451783      5.15233247      4.03780296
   Si     17.37361361      1.11451783      5.15233247      4.02046243
   Si     13.51281059      1.11451783      5.15233247      4.04089119
   Si      9.65200756      1.11451783      5.15233247      4.02046195
   Si      5.79120454      1.11451783      5.15233247      4.03780206
   Si      1.93040151      1.11451783      5.15233247      4.01902187
   Si     25.09521966      1.11451783      5.15233247      4.01902212
   Si     32.81682571     21.17583883      7.51658182      4.00868398
   Si     28.95602269     21.17583883      7.51658182      4.01193865
   Si     25.09521966     21.17583883      7.51658182      4.01193891
   Si     21.23441664     21.17583883      7.51658182      4.00868442
   Si     17.37361361     21.17583883      7.51658182      4.00463501
   Si     13.51281059     21.17583883      7.51658182      3.97685116
   Si     36.67762874     21.17583883      7.51658182      4.00463483
   Si     30.88642420     17.83228533      7.51658182      4.01991822
   Si     27.02562118     17.83228533      7.51658182      4.01221389
   Si     23.16481815     17.83228533      7.51658182      4.01991865
   Si     19.30401513     17.83228533      7.51658182      4.00868600
   Si     15.44321210     17.83228533      7.51658182      4.03326547
   Si     11.58240908     17.83228533      7.51658182      4.03326518
   Si     34.74722723     17.83228533      7.51658182      4.00868562
   Si     28.95602269     14.48873183      7.51658182      4.01221283
   Si     25.09521966     14.48873183      7.51658182      4.01221308
   Si     21.23441664     14.48873183      7.51658182      4.01194176
   Si     17.37361361     14.48873183      7.51658182      3.99065117
   Si     13.51281059     14.48873183      7.51658182      4.00860014
   Si      9.65200756     14.48873183      7.51658182      3.99065108
   Si     32.81682571     14.48873183      7.51658182      4.01194143
   Si     27.02562118     11.14517833      7.51658182      4.01991604
   Si     23.16481815     11.14517833      7.51658182      4.01194228
   Si     19.30401513     11.14517833      7.51658182      4.03057621
   Si     15.44321210     11.14517833      7.51658182      4.01141320
   Si     11.58240908     11.14517833      7.51658182      4.01141317
   Si      7.72160605     11.14517833      7.51658182      4.03057611
   Si     30.88642420     11.14517833      7.51658182      4.01194220
   Si     25.09521966      7.80162483      7.51658182      4.00868388
   Si     21.23441664      7.80162483      7.51658182      3.99065345
   Si     17.37361361      7.80162483      7.51658182      4.01141511
   Si     13.51281059      7.80162483      7.51658182      4.02592201
   Si      9.65200756      7.80162483      7.51658182      4.01141526
   Si      5.79120454      7.80162483      7.51658182      3.99065352
   Si     28.95602269      7.80162483      7.51658182      4.00868393
   Si     23.16481815      4.45807133      7.51658182      4.03326669
   Si     19.30401513      4.45807133      7.51658182      4.00860348
   Si     15.44321210      4.45807133      7.51658182      4.01141441
   Si     11.58240908      4.45807133      7.51658182      4.01141459
   Si      7.72160605      4.45807133      7.51658182      4.00860389
   Si      3.86080303      4.45807133      7.51658182      4.03326695
   Si     27.02562118      4.45807133      7.51658182      4.00463451
   Si     21.23441664      1.11451783      7.51658182      4.03326599
   Si     17.37361361      1.11451783      7.51658182      3.99064896
   Si     13.51281059      1.11451783      7.51658182      4.03057139
   Si      9.65200756      1.11451783      7.51658182      3.99064912
   Si      5.79120454      1.11451783      7.51658182      4.03326654
   Si      1.93040151      1.11451783      7.51658182      3.97684988
   Si     25.09521966      1.11451783      7.51658182      3.97685015
   Si     34.74653133     20.06091991      8.06971734      3.90352375
   Si     30.88890143     20.06262030      8.39543581      4.00697463
   Si     27.02562150     20.06009320      8.04912130      3.88502117
   Si     23.16234070     20.06262064      8.39544071      4.00697495
   Si     19.30471085     20.06091979      8.06972659      3.90352341
   Si     15.44537450     20.04048344      8.35162137      3.99791238
   Si     11.58024687     20.04048322      8.35161920      3.99791189
   Si     32.81918209     16.71926621      8.39544458      4.00697457
   Si     28.96795177     16.72466179      8.39752588      4.00899635
   Si     25.08329066     16.72466155      8.39752824      4.00899632
   Si     21.23205967     16.71926597      8.39544989      4.00697510
   Si     17.35632309     16.74868987      8.37975287      4.01916434
   Si     13.51281025     16.71997156      8.05280159      3.88640402
   Si      9.66929821     16.74868947      8.37975015      4.01916405
   Si     30.88535754     13.37482923      8.04911479      3.88502100
   Si     27.02562101     13.36044111      8.39749325      4.00899041
   Si     23.16588498     13.37482895      8.04911839      3.88502098
   Si     19.31858974     13.34862097      8.37103384      4.01593044
   Si     15.45520272     13.38307729      8.39507607      4.01280397
   Si     11.57041846     13.38307740      8.39507519      4.01280398
   Si      7.70703189     13.34862128      8.37103231      4.01593031
   Si     28.95590361     10.02786593      8.39541427      4.00696823
   Si     25.09533843     10.02786589      8.39541469      4.00696843
   Si     21.21952791     10.05607668      8.37104046      4.01592986
   Si     17.37464502     10.03126132      8.03774850      3.88044258
   Si     13.51281072     10.02783907      8.39570215      4.00739064
   Si      9.65097614     10.03126155      8.03774829      3.88044265
   Si      5.80609338     10.05607669      8.37104022      4.01592970
   Si     27.02562099      6.68791460      8.06978256      3.90353686
   Si     23.18295086      6.65668046      8.37976044      4.01916584
   Si     19.31767779      6.69307882      8.39512131      4.01281213
   Si     15.44076369      6.68852200      8.39573553      4.00740048
   Si     11.58485774      6.68852199      8.39573667      4.00740050
   Si      7.70794330      6.69307861      8.39512426      4.01281259
   Si      3.84267000      6.65668017      8.37976200      4.01916616
   Si     25.07825104      3.35584653      8.35163121      3.99791322
   Si     21.23632492      3.34245387      8.05274246      3.88639236
   Si     17.37528186      3.32873958      8.39511197      4.01281183
   Si     13.51281078      3.34236013      8.03776063      3.88044471
   Si      9.65033919      3.32873967      8.39511580      4.01281230
   Si      5.78929615      3.34245420      8.05275064      3.88639268
   Si      1.94737034      3.35584680      8.35163287      3.99791359
   Si     23.14569294      0.00855392      8.35163664      3.99791452
   Si     19.33943510     -0.00048398      8.37975132      4.01916767
   Si     15.41376459      0.00018215      8.37099816      4.01592775
   Si     11.61185714      0.00018201      8.37099944      4.01592772
   Si      7.68618538     -0.00048441      8.37975560      4.01916828
   Si      3.87992849      0.00855369      8.35164048      3.99791538
   Si      0.00000053      0.00000661      8.50482063      4.24454426
   Si     34.70674052     20.03796538     10.34347160      4.04740558
   Si     30.90441538     20.06304837     10.83800831      3.90884074
   Si     27.02562319     20.01513131     10.31375314      4.03923902
   Si     23.14682668     20.06304954     10.83801456      3.90883923
   Si     19.34450077     20.03796417     10.34347749      4.04740419
   Si     15.76855184     19.51386390     10.67952747      3.93553732
   Si     11.25706856     19.51386373     10.67952341      3.93553844
   Si     32.82729718     16.73249424     10.83801996      3.90883913
   Si     29.06417705     16.78024100     10.84199558      3.94269962
   Si     24.98706884     16.78023922     10.84199802      3.94269878
   Si     21.22394343     16.73249375     10.83802668      3.90883734
   Si     17.00506088     17.37621137     10.70262782      3.96753750
   Si     13.51280813     16.67263811     10.31706848      4.04202165
   Si     10.02055864     17.37621121     10.70262339      3.96753850
   Si     30.84645968     13.39740707     10.31374679      4.03924173
   Si     27.02562141     13.24931001     10.84194525      3.94271087
   Si     23.20478396     13.39740549     10.31374905      4.03924120
   Si     19.66590456     12.76805983     10.69611455      3.97361963
   Si     15.43826371     13.39076883     10.82886240      3.91215688
   Si     11.58735642     13.39076931     10.82886087      3.91215683
   Si      7.35971777     12.76806177     10.69611235      3.97361985
   Si     28.94851141     10.01421069     10.83797194      3.90884526
   Si     25.10273052     10.01421026     10.83797241      3.90884498
   Si     20.89037415     10.64713821     10.69612171      3.97361702
   Si     17.33845351     10.01024904     10.29371740      4.03421900
   Si     13.51281103     10.15828316     10.82821356      3.94493269
   Si      9.68716779     10.01025097     10.29371753      4.03421902
   Si      6.13524769     10.64714041     10.69612057      3.97361739
   Si     27.02561960      6.73393177     10.34354095      4.04740452
   Si     23.55077578      6.03873441     10.70264330      3.96753855
   Si     19.31581579      6.67461940     10.82893605      3.91215001
   Si     15.55370101      6.62330456     10.82827731      3.94491786
   Si     11.47192301      6.62330570     10.82827876      3.94491766
   Si      7.70980460      6.67462034     10.82894014      3.91214929
   Si      3.47484398      6.03873524     10.70264618      3.96753813
   Si     24.78377939      3.89905705     10.67954113      3.93553672
   Si     21.19538077      3.36610489     10.31701072      4.04202343
   Si     17.39036721      3.33958065     10.82891713      3.91215430
   Si     13.51281232      3.38420538     10.29373097      4.03421689
   Si      9.63525428      3.33958063     10.82892275      3.91215363
   Si      5.83024003      3.36610752     10.31701685      4.04202259
   Si      2.24184127      3.89905767     10.67954409      3.93553637
   Si     22.52804559     -0.00800030     10.67956111      3.93554298
   Si     20.05852547     -0.01003892     10.70263961      3.96754182
   Si     14.73731261     -0.01030490     10.69607827      3.97361806
   Si     12.28831305     -0.01030545     10.69607933      3.97361821
   Si      6.96709475     -0.01003920     10.70264692      3.96754040
   Si      4.49757534     -0.00800047     10.67956814      3.93554151
   Si     32.97666347     21.17917262     11.51708957      4.05411042
   Si     28.79711360     21.14685151     11.47408580      4.04842728
   Si     25.25413380     21.14684987     11.47408774      4.04842751
   Si     21.07457900     21.17917259     11.51709607      4.05410943
   Si     17.51459445     21.09443920     11.50417646      4.07031564
   Si     27.02562333     17.93478124     11.45143004      4.02503889
   Si     23.10109660     17.86910282     11.89853239      4.24312048
   Si     19.22121683     17.96904091     11.51706840      4.05410733
   Si     13.51280909     18.78423169     11.46769410      4.06473338
   Si     36.53664352     21.09443803     11.50417115      4.07031620
   Si     30.95014855     17.86910476     11.89853066      4.24312111
   Si     25.00648924     14.43750361     11.45137774      4.02503656
   Si     21.33898939     14.36562406     11.47421046      4.04844329
   Si     15.36823419     15.74994689     11.48292408      4.04790778
   Si     11.65738172     15.74994624     11.48292328      4.04790760
   Si     34.83002356     17.96904414     11.51706221      4.05410835
   Si     29.04475479     14.43750513     11.45137577      4.02503705
   Si     27.02562090     11.07159193     11.89847832      4.24312200
   Si     23.11050145     11.29731281     11.47399686      4.04841830
   Si     17.43703832     12.10908976     11.44700890      4.04650241
   Si     13.51280916     12.33443349     11.88988122      4.24115278
   Si      9.58858262     12.10909227     11.44700835      4.04650244
   Si     32.71225375     14.36562568     11.47420731      4.04844334
   Si     25.17223552      7.66155708     11.51717412      4.05412372
   Si     19.20529075      9.04643914     11.44730417      4.04653310
   Si     15.53548367      8.96944270     11.42561239      4.02279632
   Si     11.49013751      8.96944474     11.42561246      4.02279645
   Si      7.82033072      9.04644162     11.44730528      4.04653342
   Si     30.94074100     11.29731651     11.47399565      4.04841858
   Si     27.02562000      4.62090819     11.50416052      4.07032238
   Si     21.32392960      5.43434190     11.48281145      4.04789132
   Si     17.43829790      5.53523531     11.88995335      4.24114971
   Si     13.51281236      5.46601570     11.42566107      4.02279872
   Si      9.58732525      5.53523810     11.88995597      4.24114927
   Si      5.70168996      5.43434628     11.48281693      4.04789118
   Si     28.87900309      7.66155728     11.51717442      4.05412374
   Si     23.02402879      2.31035934     11.46777024      4.06473080
   Si     19.46853458      2.22065959     11.48283227      4.04789297
   Si     15.28103714      2.24937860     11.44714850      4.04651716
   Si     11.74458839      2.24937907     11.44715015      4.04651745
   Si      7.55708639      2.22066023     11.48283855      4.04789302
   Si      4.00159028      2.31035985     11.46777561      4.06473111
   Si      5.77962001      3.33691319     12.88623477      3.92309571
   Si     13.51281501      3.35457588     12.83599342      3.90414501
   Si     21.24599923      3.33690874     12.88622815      3.92309632
   Si      9.66170824     10.02529291     12.83598101      3.90414603
   Si     17.36391309     10.02528790     12.83598068      3.90414599
   Si     13.51280577     16.73124834     12.88630933      3.92308593
   Si     27.02561830      6.67586259     12.92359493      3.91622275
   Si     23.17825716     13.38182986     12.85906040      3.89877952
   Si     30.87298813     13.38183441     12.85905911      3.89877995
   Si     19.29428636     20.06691214     12.92350364      3.91623228
   Si     27.02562658     20.04595942     12.85906814      3.89877765
   Si     34.75695307     20.06691377     12.92349666      3.91623365
