   61
Geometry Step: 0
    H     11.58240908      8.90630932      2.86193171      1.05490399
    H      7.71850805      8.91793037      2.86125925      1.05716067
    H     15.44631011      8.91793037      2.86125925      1.05763903
    H      9.66052267      5.57750442      2.86193170      1.05408965
    H      5.79120454      5.56194977      2.86140756      1.05413626
    H     13.50429548      5.57750442      2.86193170      1.05418961
    H      7.71239285      2.23435394      2.86140755      1.05447633
    H      3.87001622      2.23435394      2.86140755      1.05323980
    H     11.58240908      2.22545752      2.86125925      1.05671058
   Si     11.58240908      8.91614266      4.36424935      3.90927513
   Si      7.72160605      8.91614266      4.36424935      3.90061486
   Si     15.44321210      8.91614266      4.36424935      3.90171195
   Si      9.65200756      5.57258916      4.36424935      3.90244998
   Si      5.79120454      5.57258916      4.36424935      3.90714977
   Si     13.51281059      5.57258916      4.36424935      3.90653362
   Si      7.72160605      2.22903567      4.36424935      3.90952022
   Si      3.86080303      2.22903567      4.36424935      3.90627802
   Si     11.58240908      2.22903567      4.36424935      3.90214605
   Si      9.65200756      7.80162483      5.15233247      4.03972755
   Si      5.79120454      7.80162483      5.15233247      4.03252559
   Si     13.51281059      7.80162483      5.15233247      4.03422563
   Si      7.72160605      4.45807133      5.15233247      4.02769005
   Si      3.86080303      4.45807133      5.15233247      4.02945683
   Si     11.58240908      4.45807133      5.15233247      4.03401975
   Si      5.79120454      1.11451783      5.15233247      4.02664763
   Si      1.93040151      1.11451783      5.15233247      4.02965867
   Si      9.65200756      1.11451783      5.15233247      4.02987445
   Si      9.74252783      8.03860976      7.51099624      4.00320375
   Si      5.92054076      7.99185705      7.56163938      3.98422173
   Si     13.69364526      8.02399495      7.49679042      3.99592109
   Si      7.90146229      4.62786730      7.45215422      4.02014890
   Si      3.93832215      4.62476219      7.45549377      4.01927128
   Si     11.73828299      4.54738557      7.50398773      3.99810515
   Si      5.94573985      1.23809128      7.45211909      4.01839254
   Si      2.00070464      1.26294138      7.61271171      3.96834835
   Si      9.81321728      1.25815365      7.59321299      3.98132102
   Si     11.71945426      6.85663098      7.96343349      3.95429082
   Si      7.87724488      6.83846704      8.33156978      3.99733765
   Si      3.99874235      6.83258268      8.32562320      3.99659972
   Si      9.78865128      3.54892677      8.38577269      3.99870425
   Si      5.92310398      3.51311648      8.00162291      3.94163953
   Si      2.10612101      3.53812532      8.44870019      4.00384808
   Si      7.84489509      0.21640247      8.43619881      4.00597223
   Si      4.03519627      0.26125287      8.37696106      3.99609451
   Si      0.11478448      0.14193048      8.59247332      4.18060849
   Si     11.93453184      7.12414693     10.24077106      4.05049245
   Si      8.38196741      6.51316101     10.66861368      3.95723021
   Si      3.80222286      6.47784460     10.69336114      3.94378002
   Si      9.61278374      4.35636717     10.67591931      3.94506543
   Si      6.05147045      3.78994413     10.26965140      4.04061645
   Si      2.54416514      4.32283247     10.74599538      3.94570331
   Si      7.29827446      0.48663475     10.83662102      3.95465202
   Si      4.81280070      0.46168491     10.69831719      3.94910275
   Si     10.12896590      8.17608619     11.50896015      4.04195265
   Si     13.67382081      8.15611036     11.48136950      4.03808968
   Si      6.10272998      5.84134210     11.46229838      4.04265650
   Si      7.85978555      2.85278488     11.50811736      4.03123637
   Si      4.34278242      2.78101814     11.58758130      4.06314347
   Si     11.86529140      5.11341120     11.52052371      4.05935471
   Si      6.18106480      3.87351734     12.98365623      3.97830321
   Si     11.85039310      7.23366813     12.92019590      3.96853997
