   61
Geometry Step: 0
    H     11.58240908      8.90630932      2.86193171      1.05572205
    H      7.71850805      8.91793037      2.86125925      1.05708099
    H     15.44631011      8.91793037      2.86125925      1.05707320
    H      9.66052267      5.57750442      2.86193170      1.05423724
    H      5.79120454      5.56194977      2.86140756      1.05445719
    H     13.50429548      5.57750442      2.86193170      1.05472954
    H      7.71239285      2.23435394      2.86140755      1.05438229
    H      3.87001622      2.23435394      2.86140755      1.05415791
    H     11.58240908      2.22545752      2.86125925      1.05622336
   Si     11.58240908      8.91614266      4.36424935      3.91329505
   Si      7.72160605      8.91614266      4.36424935      3.89981548
   Si     15.44321210      8.91614266      4.36424935      3.89831674
   Si      9.65200756      5.57258916      4.36424935      3.90238164
   Si      5.79120454      5.57258916      4.36424935      3.90431319
   Si     13.51281059      5.57258916      4.36424935      3.90494366
   Si      7.72160605      2.22903567      4.36424935      3.90834379
   Si      3.86080303      2.22903567      4.36424935      3.90746012
   Si     11.58240908      2.22903567      4.36424935      3.89778520
   Si      9.65200756      7.80162483      5.15233247      4.03396053
   Si      5.79120454      7.80162483      5.15233247      4.03469513
   Si     13.51281059      7.80162483      5.15233247      4.03824801
   Si      7.72160605      4.45807133      5.15233247      4.02952230
   Si      3.86080303      4.45807133      5.15233247      4.02865461
   Si     11.58240908      4.45807133      5.15233247      4.03082890
   Si      5.79120454      1.11451783      5.15233247      4.02472050
   Si      1.93040151      1.11451783      5.15233247      4.03299017
   Si      9.65200756      1.11451783      5.15233247      4.03268153
   Si      9.74573772      8.05723826      7.50991111      4.00938604
   Si      5.89636763      8.00837828      7.53605365      3.97649386
   Si     13.65124487      7.95915297      7.51136260      3.99990962
   Si      7.88092219      4.62794616      7.46622334      4.01936930
   Si      3.92626339      4.55749009      7.45077901      4.01355314
   Si     11.69748231      4.60019615      7.54059248      4.00844491
   Si      5.91221249      1.19959078      7.46157888      4.02121709
   Si      1.95408668      1.28149345      7.62374390      3.96574132
   Si      9.79883809      1.28087666      7.61136896      3.97823834
   Si     11.67522224      6.87962026      8.18813055      3.95428600
   Si      7.85821444      6.86631175      8.25849598      3.99660046
   Si      4.00244084      6.78334772      8.24138494      4.00673070
   Si      9.77152693      3.57636627      8.44807509      4.00374367
   Si      5.92181376      3.47466045      8.05881365      3.96333895
   Si      2.05798720      3.54489715      8.46111763      4.01170593
   Si      7.84244422      0.19054408      8.42468913      3.99371462
   Si      3.97249327      0.28495928      8.40438500      3.99983039
   Si      0.08296217      0.14051407      8.60589803      4.18722282
   Si     11.88026730      7.33644217     10.43208885      4.00436695
   Si      8.42905711      6.62344385     10.55378731      3.94213817
   Si      3.83582981      6.53515150     10.59335475      3.97770575
   Si      9.70490122      4.50103322     10.69614156      3.94501425
   Si      6.04075076      3.81796355     10.34506788      4.03395337
   Si      2.58815225      4.35938943     10.75984759      3.92525634
   Si      7.21509002      0.88018274     10.71810911      3.93068919
   Si      4.70416680      0.70141872     10.72734304      3.92691381
   Si      9.91251296      8.41394303     11.53302128      4.09720528
   Si     13.85339774      8.57072341     10.91274520      4.00885802
   Si      6.15744834      5.94728755     11.30645462      4.04169598
   Si      7.91889074      3.07704695     11.67452271      4.05521645
   Si      4.29078505      2.90671880     11.74822879      4.07454652
   Si     11.95112599      5.09265133     11.65423216      4.06781968
   Si      6.14690356      4.18179186     13.10390508      3.96981739
   Si     11.85121902      7.29279538     12.81120159      3.96825543
