   61
Geometry Step: 0
    H     11.58240908      8.90630932      2.86193171      1.05410728
    H      7.71850805      8.91793037      2.86125925      1.05665002
    H     15.44631011      8.91793037      2.86125925      1.05637172
    H      9.66052267      5.57750442      2.86193170      1.05375366
    H      5.79120454      5.56194977      2.86140756      1.05434590
    H     13.50429548      5.57750442      2.86193170      1.05455394
    H      7.71239285      2.23435394      2.86140755      1.05515519
    H      3.87001622      2.23435394      2.86140755      1.05584148
    H     11.58240908      2.22545752      2.86125925      1.05698919
   Si     11.58240908      8.91614266      4.36424935      3.90645572
   Si      7.72160605      8.91614266      4.36424935      3.90366167
   Si     15.44321210      8.91614266      4.36424935      3.89825795
   Si      9.65200756      5.57258916      4.36424935      3.90791954
   Si      5.79120454      5.57258916      4.36424935      3.90549074
   Si     13.51281059      5.57258916      4.36424935      3.90421710
   Si      7.72160605      2.22903567      4.36424935      3.90899713
   Si      3.86080303      2.22903567      4.36424935      3.90955055
   Si     11.58240908      2.22903567      4.36424935      3.90111771
   Si      9.65200756      7.80162483      5.15233247      4.03297893
   Si      5.79120454      7.80162483      5.15233247      4.03523869
   Si     13.51281059      7.80162483      5.15233247      4.03611770
   Si      7.72160605      4.45807133      5.15233247      4.02355736
   Si      3.86080303      4.45807133      5.15233247      4.02496057
   Si     11.58240908      4.45807133      5.15233247      4.03350026
   Si      5.79120454      1.11451783      5.15233247      4.02696143
   Si      1.93040151      1.11451783      5.15233247      4.02991435
   Si      9.65200756      1.11451783      5.15233247      4.03095614
   Si      9.53784066      7.80499277      7.47363938      4.00447249
   Si      5.67384108      7.77972612      7.60116213      3.95466289
   Si     13.42528273      7.79932304      7.49961079      3.99551630
   Si      7.64194245      4.40309480      7.48131170      4.02865362
   Si      3.70761132      4.40494140      7.44060922      4.02555553
   Si     11.44034384      4.34779306      7.51410524      4.00278829
   Si      5.70873215      1.10818628      7.51543857      4.01459916
   Si      1.80423046      1.01951731      7.56751540      3.98235744
   Si      9.59450396      1.03869585      7.60217121      3.97801885
   Si     11.46839004      6.62596550      8.06915891      3.96528781
   Si      7.65749015      6.61134308      8.27257798      3.99508850
   Si      3.69747145      6.58504151      8.31593613      4.01215210
   Si      9.49425332      3.27850286      8.45090638      4.00388298
   Si      5.66085861      3.38258570      8.25878462      3.99348839
   Si      1.81170951      3.27217646      8.32321487      3.99289539
   Si      7.60027409     -0.02861856      8.39256757      3.99363962
   Si      3.80953305     -0.02369056      8.35609627      3.99824590
   Si     -0.09370676     -0.06227917      8.59098914      4.19358428
   Si     11.41503836      6.51942823     10.36037884      4.01204235
   Si      9.10022985      3.68875710     10.86921038      3.93968436
   Si      3.25343763      5.81084473     10.55105671      4.01479747
   Si      8.56278863      6.06697675     10.39039302      3.89743772
   Si      5.16178816      4.12300424     10.47807362      3.96806352
   Si      1.94598554      3.75315124     10.67242974      3.94885330
   Si      6.96310303     -0.14459850     10.71067806      3.98431327
   Si      4.50627104     -0.03295462     10.65671971      3.96536989
   Si      9.72439499      7.76919914     11.68458539      4.07917407
   Si     13.26222723      7.55375379     11.51631731      4.02889145
   Si      6.93535763      4.87201520     11.86223467      4.01381943
   Si      7.77892371      1.79630049     12.04920458      4.05182902
   Si      3.87908285      2.28887435     11.47781719      4.01548982
   Si     11.34795636      4.46471751     11.60911420      4.06581968
   Si      5.80285123      2.95622696     12.91623467      4.00945388
   Si     11.51268027      6.56261433     12.99546091      3.95244932
