   61
Geometry Step: 0
    H     11.58240908      8.90630932      2.86193171      1.05816762
    H      7.71850805      8.91793037      2.86125925      1.05447178
    H     15.44631011      8.91793037      2.86125925      1.05888363
    H      9.66052267      5.57750442      2.86193170      1.05355064
    H      5.79120454      5.56194977      2.86140756      1.05397911
    H     13.50429548      5.57750442      2.86193170      1.05767129
    H      7.71239285      2.23435394      2.86140755      1.05427023
    H      3.87001622      2.23435394      2.86140755      1.05788269
    H     11.58240908      2.22545752      2.86125925      1.05345304
   Si     11.58240908      8.91614266      4.36424935      3.89781583
   Si      7.72160605      8.91614266      4.36424935      3.89918981
   Si     15.44321210      8.91614266      4.36424935      3.89859413
   Si      9.65200756      5.57258916      4.36424935      3.90224288
   Si      5.79120454      5.57258916      4.36424935      3.89895157
   Si     13.51281059      5.57258916      4.36424935      3.89517400
   Si      7.72160605      2.22903567      4.36424935      3.91153557
   Si      3.86080303      2.22903567      4.36424935      3.90485689
   Si     11.58240908      2.22903567      4.36424935      3.90191030
   Si      9.65200756      7.80162483      5.15233247      4.01847686
   Si      5.79120454      7.80162483      5.15233247      4.03868553
   Si     13.51281059      7.80162483      5.15233247      4.03403519
   Si      7.72160605      4.45807133      5.15233247      4.03325084
   Si      3.86080303      4.45807133      5.15233247      4.03189177
   Si     11.58240908      4.45807133      5.15233247      4.03721584
   Si      5.79120454      1.11451783      5.15233247      4.01024597
   Si      1.93040151      1.11451783      5.15233247      4.03766619
   Si      9.65200756      1.11451783      5.15233247      4.03783372
   Si      9.76177128      7.50484164      7.57781682      4.08279952
   Si      5.80814661      7.80735224      7.57331850      3.97850906
   Si     13.61839064      7.68968721      7.61149261      4.00312291
   Si      7.60781712      4.42996714      7.49474237      3.92125919
   Si      3.76429603      4.33006068      7.49708015      4.00615096
   Si     11.68120312      4.38207940      7.54304971      3.80987151
   Si      5.80150636      1.03931411      7.53443463      4.06609709
   Si      1.79422983      1.23831757      7.64251543      3.95929903
   Si      9.55871770      0.98136111      7.56372890      3.99355577
   Si     11.72978035      6.52969083      8.53346905      4.13652591
   Si      7.70555134      6.58304113      8.44730029      4.02285887
   Si      4.02427408      6.49839905      8.39387537      4.04584469
   Si      9.66100810      3.89093592      9.09092980      3.97079157
   Si      5.70189738      3.28147565      8.41935040      3.96267069
   Si      1.90486091      3.38489150      8.69551819      4.21351183
   Si      7.67776320     -0.18883847      8.69515469      4.06002806
   Si      3.84842677      0.74990038      8.86815710      3.99720636
   Si     -0.07843615     -0.01441226      8.51027357      4.00845332
   Si     12.95719104      8.50415539     10.98228270      3.92350432
   Si      9.57126296      3.22013498      8.44625909      4.03933468
   Si      4.41040341      6.05711664     12.11048656      3.98502060
   Si      8.72505801      5.67275312     10.57621291      4.09503695
   Si      7.23684599      4.04764443     11.64068100      3.93817842
   Si      2.11276947      6.56219855     12.37226851      4.01211851
   Si      8.25331452      1.89363055     11.73261406      3.97329089
   Si      5.16767803      2.17433224     10.43555666      3.95915375
   Si     10.96674743      8.80193423      9.50798818      3.81564415
   Si     16.18469258     10.34714141     10.63446797      4.05550023
   Si      5.40365394      5.46286615     10.20855377      3.96005908
   Si     10.45846063      2.65190644     11.17126069      3.98922684
   Si      4.41235176      2.38264664     12.70014473      4.00918605
   Si     12.70128527      8.40465165     13.59851404      3.98669372
   Si      5.65143641      4.39395231     13.35505239      4.09804229
   Si     12.11014661     10.57581661     12.29735081      4.02955026
