   61
Geometry Step: 0
    H     11.58240908      8.90630932      2.86193171      1.05284098
    H      7.71850805      8.91793037      2.86125925      1.05610466
    H     15.44631011      8.91793037      2.86125925      1.05610466
    H      9.66052267      5.57750442      2.86193170      1.05284097
    H      5.79120454      5.56194977      2.86140756      1.05331400
    H     13.50429548      5.57750442      2.86193170      1.05284097
    H      7.71239285      2.23435394      2.86140755      1.05331400
    H      3.87001622      2.23435394      2.86140755      1.05331400
    H     11.58240908      2.22545752      2.86125925      1.05610466
   Si     11.58240908      8.91614266      4.36424935      3.90921854
   Si      7.72160605      8.91614266      4.36424935      3.90339779
   Si     15.44321210      8.91614266      4.36424935      3.90339779
   Si      9.65200756      5.57258916      4.36424935      3.90921854
   Si      5.79120454      5.57258916      4.36424935      3.91472110
   Si     13.51281059      5.57258916      4.36424935      3.90921854
   Si      7.72160605      2.22903567      4.36424935      3.91472108
   Si      3.86080303      2.22903567      4.36424935      3.91472108
   Si     11.58240908      2.22903567      4.36424935      3.90339779
   Si      9.65200756      7.80162483      5.15233247      4.03639745
   Si      5.79120454      7.80162483      5.15233247      4.01835697
   Si     13.51281059      7.80162483      5.15233247      4.03639745
   Si      7.72160605      4.45807133      5.15233247      4.03518716
   Si      3.86080303      4.45807133      5.15233247      4.03518716
   Si     11.58240908      4.45807133      5.15233247      4.03639746
   Si      5.79120454      1.11451783      5.15233247      4.03518714
   Si      1.93040151      1.11451783      5.15233247      4.01835702
   Si      9.65200756      1.11451783      5.15233247      4.01835702
   Si      9.65200756      7.80162483      7.51658182      4.00300839
   Si      5.79120454      7.80162483      7.51658182      3.97040790
   Si     13.51281059      7.80162483      7.51658182      4.00300839
   Si      7.72160605      4.45807133      7.51658182      4.03641753
   Si      3.86080303      4.45807133      7.51658182      4.03641753
   Si     11.58240908      4.45807133      7.51658182      4.00300819
   Si      5.79120454      1.11451783      7.51658182      4.03641736
   Si      1.93040151      1.11451783      7.51658182      3.97040769
   Si      9.65200756      1.11451783      7.51658182      3.97040769
   Si     11.58240908      6.68710841      8.07762616      3.91689173
   Si      7.72806012      6.66124883      8.36510385      4.00447266
   Si      3.85434896      6.66124883      8.36510385      4.00447266
   Si      9.63283913      3.36207422      8.36510394      4.00447282
   Si      5.79120454      3.34355496      8.05802558      3.88363547
   Si      1.94956995      3.36207422      8.36510394      4.00447282
   Si      7.69598398      0.00734240      8.36510457      4.00447274
   Si      3.88642510      0.00734240      8.36510457      4.00447274
   Si      0.00000000      0.00000186      8.47793445      4.22386815
   Si     11.58240908      6.68710735     10.35770726      4.05350928
   Si      8.06929048      6.10272271     10.69652131      3.93232439
   Si      3.51311859      6.10272271     10.69652131      3.93232439
   Si      9.31975487      3.93685000     10.69652144      3.93232440
   Si      5.79120454      3.34355584     10.32874450      4.04742070
   Si      2.26265421      3.93685000     10.69652144      3.93232440
   Si      7.04167280     -0.00890822     10.69652299      3.93232556
   Si      4.54073627     -0.00890822     10.69652299      3.93232556
   Si      9.78109610      7.72709481     11.54192166      4.07044547
   Si     13.38372205      7.72709481     11.54192166      4.07044547
   Si      5.79120454      5.42218689     11.50114475      4.06218802
   Si      7.59135005      2.30424231     11.50114467      4.06218660
   Si      3.99105903      2.30424231     11.50114467      4.06218660
   Si     11.58240908      4.60712806     11.54192181      4.07044690
   Si      5.79120454      3.34355539     12.90438335      3.94828374
   Si     11.58240908      6.68710762     12.95003841      3.93959008
