  343
Geometry Step: 0
    H      0.00000001      0.00000037      2.86266151      1.05186972
    H      3.86080302      0.00000037      2.86266145      1.05186973
    H      7.72160602      0.00000033      2.86266145      1.05186971
    H     11.58240903      0.00000031      2.86266141      1.05186972
    H     15.44321210      0.00000031      2.86266136      1.05186974
    H     19.30401517      0.00000031      2.86266144      1.05186972
    H     23.16481819      0.00000033      2.86266154      1.05186971
    H      1.93040150      3.34355384      2.86266142      1.05186975
    H      5.79120450      3.34355382      2.86266135      1.05186974
    H      9.65200751      3.34355380      2.86266125      1.05186971
    H     13.51281056      3.34355381      2.86266108      1.05186971
    H     17.37361366      3.34355382      2.86266112      1.05186971
    H     21.23441670      3.34355382      2.86266138      1.05186970
    H     25.09521969      3.34355384      2.86266150      1.05186972
    H      3.86080299      6.68710733      2.86266128      1.05186978
    H      7.72160600      6.68710732      2.86266116      1.05186973
    H     11.58240902      6.68710733      2.86266089      1.05186970
    H     15.44321212      6.68710734      2.86266073      1.05186971
    H     19.30401520      6.68710734      2.86266099      1.05186970
    H     23.16481820      6.68710734      2.86266133      1.05186971
    H     27.02562117      6.68710734      2.86266138      1.05186977
    H      5.79120450     10.03066087      2.86266125      1.05186975
    H      9.65200750     10.03066087      2.86266101      1.05186971
    H     13.51281055     10.03066089      2.86266070      1.05186971
    H     17.37361366     10.03066088      2.86266074      1.05186972
    H     21.23441671     10.03066085      2.86266112      1.05186971
    H     25.09521969     10.03066085      2.86266137      1.05186974
    H     28.95602268     10.03066086      2.86266134      1.05186977
    H      7.72160602     13.37421439      2.86266130      1.05186971
    H     11.58240902     13.37421441      2.86266104      1.05186971
    H     15.44321209     13.37421442      2.86266090      1.05186973
    H     19.30401518     13.37421439      2.86266110      1.05186972
    H     23.16481819     13.37421436      2.86266141      1.05186971
    H     27.02562119     13.37421436      2.86266150      1.05186972
    H     30.88642420     13.37421438      2.86266144      1.05186972
    H      9.65200754     16.71776788      2.86266137      1.05186972
    H     13.51281056     16.71776792      2.86266122      1.05186973
    H     17.37361363     16.71776792      2.86266124      1.05186974
    H     21.23441667     16.71776788      2.86266144      1.05186972
    H     25.09521966     16.71776786      2.86266158      1.05186970
    H     28.95602269     16.71776785      2.86266157      1.05186971
    H     32.81682572     16.71776786      2.86266150      1.05186971
    H     11.58240907     20.06132137      2.86266145      1.05186972
    H     15.44321210     20.06132141      2.86266140      1.05186973
    H     19.30401514     20.06132139      2.86266145      1.05186973
    H     23.16481813     20.06132135      2.86266154      1.05186971
    H     27.02562115     20.06132133      2.86266154      1.05186972
    H     30.88642422     20.06132132      2.86266152      1.05186973
    H     34.74722725     20.06132133      2.86266151      1.05186972
   Si      0.00000000      0.00000000      4.36424935      3.90897194
   Si      3.86080303      0.00000000      4.36424935      3.90897194
   Si      7.72160605      0.00000000      4.36424935      3.90897191
   Si     11.58240908      0.00000000      4.36424935      3.90897187
   Si     15.44321210      0.00000000      4.36424935      3.90897184
   Si     19.30401513      0.00000000      4.36424935      3.90897187
   Si     23.16481815      0.00000000      4.36424935      3.90897192
   Si      1.93040151      3.34355350      4.36424935      3.90897197
   Si      5.79120454      3.34355350      4.36424935      3.90897189
   Si      9.65200756      3.34355350      4.36424935      3.90897180
   Si     13.51281059      3.34355350      4.36424935      3.90897178
   Si     17.37361361      3.34355350      4.36424935      3.90897177
   Si     21.23441664      3.34355350      4.36424935      3.90897181
   Si     25.09521966      3.34355350      4.36424935      3.90897192
   Si      3.86080303      6.68710700      4.36424935      3.90897194
   Si      7.72160605      6.68710700      4.36424935      3.90897182
   Si     11.58240908      6.68710700      4.36424935      3.90897181
   Si     15.44321210      6.68710700      4.36424935      3.90897182
   Si     19.30401513      6.68710700      4.36424935      3.90897180
   Si     23.16481815      6.68710700      4.36424935      3.90897185
   Si     27.02562118      6.68710700      4.36424935      3.90897197
   Si      5.79120454     10.03066050      4.36424935      3.90897185
   Si      9.65200756     10.03066050      4.36424935      3.90897181
   Si     13.51281059     10.03066050      4.36424935      3.90897183
   Si     17.37361361     10.03066050      4.36424935      3.90897182
   Si     21.23441664     10.03066050      4.36424935      3.90897181
   Si     25.09521966     10.03066050      4.36424935      3.90897189
   Si     28.95602269     10.03066050      4.36424935      3.90897195
   Si      7.72160605     13.37421400      4.36424935      3.90897182
   Si     11.58240908     13.37421400      4.36424935      3.90897179
   Si     15.44321210     13.37421400      4.36424935      3.90897178
   Si     19.30401513     13.37421400      4.36424935      3.90897177
   Si     23.16481815     13.37421400      4.36424935      3.90897183
   Si     27.02562118     13.37421400      4.36424935      3.90897191
   Si     30.88642420     13.37421400      4.36424935      3.90897190
   Si      9.65200756     16.71776749      4.36424935      3.90897186
   Si     13.51281059     16.71776749      4.36424935      3.90897181
   Si     17.37361361     16.71776749      4.36424935      3.90897181
   Si     21.23441664     16.71776749      4.36424935      3.90897186
   Si     25.09521966     16.71776749      4.36424935      3.90897192
   Si     28.95602269     16.71776749      4.36424935      3.90897193
   Si     32.81682571     16.71776749      4.36424935      3.90897192
   Si     11.58240908     20.06132099      4.36424935      3.90897193
   Si     15.44321210     20.06132099      4.36424935      3.90897190
   Si     19.30401513     20.06132099      4.36424935      3.90897192
   Si     23.16481815     20.06132099      4.36424935      3.90897196
   Si     27.02562118     20.06132099      4.36424935      3.90897195
   Si     30.88642420     20.06132099      4.36424935      3.90897194
   Si     34.74722723     20.06132099      4.36424935      3.90897196
   Si      1.93040151      1.11451783      5.15233247      4.03066095
   Si      5.79120454      1.11451783      5.15233247      4.03066093
   Si      9.65200756      1.11451783      5.15233247      4.03066087
   Si     13.51281059      1.11451783      5.15233247      4.03066086
   Si     17.37361361      1.11451783      5.15233247      4.03066086
   Si     21.23441664      1.11451783      5.15233247      4.03066087
   Si     25.09521966      1.11451783      5.15233247      4.03066091
   Si      3.86080303      4.45807133      5.15233247      4.03066099
   Si      7.72160605      4.45807133      5.15233247      4.03066089
   Si     11.58240908      4.45807133      5.15233247      4.03066093
   Si     15.44321210      4.45807133      5.15233247      4.03066101
   Si     19.30401513      4.45807133      5.15233247      4.03066094
   Si     23.16481815      4.45807133      5.15233247      4.03066091
   Si     27.02562118      4.45807133      5.15233247      4.03066100
   Si      5.79120454      7.80162483      5.15233247      4.03066094
   Si      9.65200756      7.80162483      5.15233247      4.03066099
   Si     13.51281059      7.80162483      5.15233247      4.03066120
   Si     17.37361361      7.80162483      5.15233247      4.03066120
   Si     21.23441664      7.80162483      5.15233247      4.03066100
   Si     25.09521966      7.80162483      5.15233247      4.03066097
   Si     28.95602269      7.80162483      5.15233247      4.03066104
   Si      7.72160605     11.14517833      5.15233247      4.03066089
   Si     11.58240908     11.14517833      5.15233247      4.03066106
   Si     15.44321210     11.14517833      5.15233247      4.03066118
   Si     19.30401513     11.14517833      5.15233247      4.03066105
   Si     23.16481815     11.14517833      5.15233247      4.03066089
   Si     27.02562118     11.14517833      5.15233247      4.03066097
   Si     30.88642420     11.14517833      5.15233247      4.03066096
   Si      9.65200756     14.48873183      5.15233247      4.03066088
   Si     13.51281059     14.48873183      5.15233247      4.03066096
   Si     17.37361361     14.48873183      5.15233247      4.03066095
   Si     21.23441664     14.48873183      5.15233247      4.03066085
   Si     25.09521966     14.48873183      5.15233247      4.03066087
   Si     28.95602269     14.48873183      5.15233247      4.03066094
   Si     32.81682571     14.48873183      5.15233247      4.03066089
   Si     11.58240908     17.83228533      5.15233247      4.03066091
   Si     15.44321210     17.83228533      5.15233247      4.03066092
   Si     19.30401513     17.83228533      5.15233247      4.03066090
   Si     23.16481815     17.83228533      5.15233247      4.03066091
   Si     27.02562118     17.83228533      5.15233247      4.03066095
   Si     30.88642420     17.83228533      5.15233247      4.03066097
   Si     34.74722723     17.83228533      5.15233247      4.03066095
   Si     13.51281059     21.17583883      5.15233247      4.03066093
   Si     17.37361361     21.17583883      5.15233247      4.03066094
   Si     21.23441664     21.17583883      5.15233247      4.03066096
   Si     25.09521966     21.17583883      5.15233247      4.03066095
   Si     28.95602269     21.17583883      5.15233247      4.03066094
   Si     32.81682571     21.17583883      5.15233247      4.03066096
   Si     36.67762874     21.17583883      5.15233247      4.03066095
   Si      1.93040151      1.11451783      7.51658182      4.01692514
   Si      5.79120454      1.11451783      7.51658182      4.01692519
   Si      9.65200756      1.11451783      7.51658182      4.01692525
   Si     13.51281059      1.11451783      7.51658182      4.01692522
   Si     17.37361361      1.11451783      7.51658182      4.01692519
   Si     21.23441664      1.11451783      7.51658182      4.01692520
   Si     25.09521966      1.11451783      7.51658182      4.01692516
   Si      3.86080303      4.45807133      7.51658182      4.01692510
   Si      7.72160605      4.45807133      7.51658182      4.01692524
   Si     11.58240908      4.45807133      7.51658182      4.01692529
   Si     15.44321210      4.45807133      7.51658182      4.01692521
   Si     19.30401513      4.45807133      7.51658182      4.01692522
   Si     23.16481815      4.45807133      7.51658182      4.01692515
   Si     27.02562118      4.45807133      7.51658182      4.01692507
   Si      5.79120454      7.80162483      7.51658182      4.01692508
   Si      9.65200756      7.80162483      7.51658182      4.01692526
   Si     13.51281059      7.80162483      7.51658182      4.01692518
   Si     17.37361361      7.80162483      7.51658182      4.01692515
   Si     21.23441664      7.80162483      7.51658182      4.01692518
   Si     25.09521966      7.80162483      7.51658182      4.01692502
   Si     28.95602269      7.80162483      7.51658182      4.01692498
   Si      7.72160605     11.14517833      7.51658182      4.01692520
   Si     11.58240908     11.14517833      7.51658182      4.01692526
   Si     15.44321210     11.14517833      7.51658182      4.01692517
   Si     19.30401513     11.14517833      7.51658182      4.01692523
   Si     23.16481815     11.14517833      7.51658182      4.01692515
   Si     27.02562118     11.14517833      7.51658182      4.01692508
   Si     30.88642420     11.14517833      7.51658182      4.01692508
   Si      9.65200756     14.48873183      7.51658182      4.01692526
   Si     13.51281059     14.48873183      7.51658182      4.01692528
   Si     17.37361361     14.48873183      7.51658182      4.01692526
   Si     21.23441664     14.48873183      7.51658182      4.01692521
   Si     25.09521966     14.48873183      7.51658182      4.01692513
   Si     28.95602269     14.48873183      7.51658182      4.01692511
   Si     32.81682571     14.48873183      7.51658182      4.01692513
   Si     11.58240908     17.83228533      7.51658182      4.01692522
   Si     15.44321210     17.83228533      7.51658182      4.01692522
   Si     19.30401513     17.83228533      7.51658182      4.01692518
   Si     23.16481815     17.83228533      7.51658182      4.01692513
   Si     27.02562118     17.83228533      7.51658182      4.01692506
   Si     30.88642420     17.83228533      7.51658182      4.01692506
   Si     34.74722723     17.83228533      7.51658182      4.01692516
   Si     13.51281059     21.17583883      7.51658182      4.01692515
   Si     17.37361361     21.17583883      7.51658182      4.01692514
   Si     21.23441664     21.17583883      7.51658182      4.01692518
   Si     25.09521966     21.17583883      7.51658182      4.01692515
   Si     28.95602269     21.17583883      7.51658182      4.01692508
   Si     32.81682571     21.17583883      7.51658182      4.01692514
   Si     36.67762874     21.17583883      7.51658182      4.01692518
   Si     -0.00000003      2.22903396      8.30720424      3.97253545
   Si      3.86080295      2.22903393      8.30720422      3.97253541
   Si      7.72160592      2.22903387      8.30720442      3.97253540
   Si     11.58240889      2.22903375      8.30720489      3.97253549
   Si     15.44321211      2.22903368      8.30720515      3.97253553
   Si     19.30401538      2.22903376      8.30720488      3.97253548
   Si     23.16481832      2.22903391      8.30720444      3.97253543
   Si      1.93040143      5.57258754      8.30720420      3.97253535
   Si      5.79120439      5.57258752      8.30720451      3.97253537
   Si      9.65200729      5.57258741      8.30720495      3.97253545
   Si     13.51281042      5.57258729      8.30720518      3.97253540
   Si     17.37361383      5.57258727      8.30720494      3.97253534
   Si     21.23441699      5.57258739      8.30720443      3.97253536
   Si     25.09521977      5.57258752      8.30720412      3.97253533
   Si      3.86080290      8.91614124      8.30720443      3.97253533
   Si      7.72160576      8.91614120      8.30720479      3.97253542
   Si     11.58240873      8.91614111      8.30720507      3.97253539
   Si     15.44321210      8.91614106      8.30720497      3.97253524
   Si     19.30401552      8.91614109      8.30720458      3.97253529
   Si     23.16481848      8.91614120      8.30720422      3.97253531
   Si     27.02562120      8.91614124      8.30720420      3.97253531
   Si      5.79120432     12.25969484      8.30720444      3.97253540
   Si      9.65200717     12.25969488      8.30720469      3.97253548
   Si     13.51281036     12.25969491      8.30720494      3.97253540
   Si     17.37361385     12.25969491      8.30720489      3.97253538
   Si     21.23441710     12.25969490      8.30720461      3.97253546
   Si     25.09521987     12.25969487      8.30720442      3.97253542
   Si     28.95602263     12.25969482      8.30720439      3.97253544
   Si      7.72160579     15.60324832      8.30720428      3.97253543
   Si     11.58240878     15.60324849      8.30720458      3.97253549
   Si     15.44321210     15.60324856      8.30720486      3.97253549
   Si     19.30401548     15.60324847      8.30720480      3.97253552
   Si     23.16481846     15.60324832      8.30720462      3.97253551
   Si     27.02562120     15.60324819      8.30720452      3.97253550
   Si     30.88642408     15.60324818      8.30720434      3.97253545
   Si      9.65200743     18.94680177      8.30720433      3.97253547
   Si     13.51281049     18.94680191      8.30720454      3.97253545
   Si     17.37361373     18.94680187      8.30720455      3.97253545
   Si     21.23441684     18.94680169      8.30720441      3.97253550
   Si     25.09521970     18.94680150      8.30720447      3.97253554
   Si     28.95602263     18.94680142      8.30720452      3.97253551
   Si     32.81682565     18.94680154      8.30720436      3.97253548
   Si     11.58240907     22.29035512      8.30720442      3.97253546
   Si     15.44321207     22.29035512      8.30720434      3.97253544
   Si     19.30401514     22.29035504      8.30720420      3.97253540
   Si     23.16481811     22.29035489      8.30720434      3.97253547
   Si     27.02562109     22.29035477      8.30720473      3.97253553
   Si     30.88642425     22.29035479      8.30720481      3.97253553
   Si     34.74722734     22.29035498      8.30720456      3.97253550
   Si      0.00000010      2.22903565     10.68495509      3.95594781
   Si      3.86080257      2.22903567     10.68495502      3.95594792
   Si      7.72160519      2.22903528     10.68495531      3.95594787
   Si     11.58240819      2.22903489     10.68495630      3.95594829
   Si     15.44321216      2.22903480     10.68495702      3.95594869
   Si     19.30401622      2.22903496     10.68495647      3.95594825
   Si     23.16481909      2.22903528     10.68495549      3.95594770
   Si      1.93040132      5.57258917     10.68495528      3.95594825
   Si      5.79120367      5.57258903     10.68495570      3.95594831
   Si      9.65200624      5.57258874     10.68495659      3.95594861
   Si     13.51280986      5.57258860     10.68495747      3.95594930
   Si     17.37361445      5.57258861     10.68495722      3.95594926
   Si     21.23441814      5.57258871     10.68495601      3.95594845
   Si     25.09522043      5.57258896     10.68495522      3.95594810
   Si      3.86080245      8.91614318     10.68495564      3.95594817
   Si      7.72160477      8.91614309     10.68495632      3.95594846
   Si     11.58240772      8.91614313     10.68495728      3.95594926
   Si     15.44321210      8.91614325     10.68495757      3.95594985
   Si     19.30401661      8.91614314     10.68495667      3.95594920
   Si     23.16481954      8.91614304     10.68495552      3.95594827
   Si     27.02562152      8.91614313     10.68495528      3.95594804
   Si      5.79120373     12.25969718     10.68495552      3.95594783
   Si      9.65200631     12.25969748     10.68495620      3.95594849
   Si     13.51280987     12.25969793     10.68495709      3.95594942
   Si     17.37361437     12.25969795     10.68495707      3.95594942
   Si     21.23441807     12.25969746     10.68495613      3.95594839
   Si     25.09522040     12.25969711     10.68495544      3.95594766
   Si     28.95602254     12.25969707     10.68495538      3.95594762
   Si      7.72160549     15.60325088     10.68495512      3.95594771
   Si     11.58240840     15.60325161     10.68495580      3.95594836
   Si     15.44321210     15.60325201     10.68495649      3.95594883
   Si     19.30401593     15.60325154     10.68495625      3.95594835
   Si     23.16481882     15.60325073     10.68495564      3.95594755
   Si     27.02562123     15.60325035     10.68495540      3.95594735
   Si     30.88642393     15.60325043     10.68495519      3.95594746
   Si      9.65200757     18.94680424     10.68495505      3.95594766
   Si     13.51281041     18.94680492     10.68495545      3.95594798
   Si     17.37361369     18.94680486     10.68495556      3.95594801
   Si     21.23441678     18.94680405     10.68495527      3.95594762
   Si     25.09521953     18.94680333     10.68495534      3.95594754
   Si     28.95602259     18.94680318     10.68495551      3.95594773
   Si     32.81682589     18.94680352     10.68495520      3.95594769
   Si     11.58240933     22.29035724     10.68495515      3.95594750
   Si     15.44321193     22.29035753     10.68495506      3.95594770
   Si     19.30401479     22.29035716     10.68495486      3.95594760
   Si     23.16481761     22.29035649     10.68495513      3.95594761
   Si     27.02562083     22.29035612     10.68495594      3.95594803
   Si     30.88642461     22.29035622     10.68495612      3.95594808
   Si     34.74722798     22.29035664     10.68495552      3.95594763
   Si     -0.00000003     -0.00000125     11.43651809      4.06308892
   Si      3.86080293     -0.00000137     11.43651814      4.06308889
   Si      7.72160563     -0.00000185     11.43651774      4.06308818
   Si     11.58240822     -0.00000261     11.43651987      4.06308863
   Si     15.44321198     -0.00000300     11.43652236      4.06308914
   Si     19.30401602     -0.00000247     11.43652087      4.06308854
   Si     23.16481877     -0.00000161     11.43651831      4.06308817
   Si      1.93040132      3.34355173     11.43651934      4.06308950
   Si      5.79120389      3.34355148     11.43651952      4.06308886
   Si      9.65200625      3.34355098     11.43652106      4.06308811
   Si     13.51280973      3.34355041     11.43652476      4.06308853
   Si     17.37361450      3.34355052     11.43652490      4.06308835
   Si     21.23441818      3.34355127     11.43652083      4.06308778
   Si     25.09522025      3.34355176     11.43651877      4.06308870
   Si      3.86080238      6.68710569     11.43652128      4.06308948
   Si      7.72160463      6.68710550     11.43652237      4.06308867
   Si     11.58240746      6.68710506     11.43652610      4.06308842
   Si     15.44321221      6.68710476     11.43652874      4.06308880
   Si     19.30401705      6.68710509     11.43652507      4.06308794
   Si     23.16481966      6.68710561     11.43652043      4.06308830
   Si     27.02562131      6.68710576     11.43652020      4.06308936
   Si      5.79120339     10.03066012     11.43652127      4.06308857
   Si      9.65200567     10.03066021     11.43652395      4.06308834
   Si     13.51280953     10.03066004     11.43652855      4.06308898
   Si     17.37361493     10.03065992     11.43652825      4.06308870
   Si     21.23441882     10.03066000     11.43652277      4.06308802
   Si     25.09522058     10.03066001     11.43651979      4.06308844
   Si     28.95602236     10.03065998     11.43652040      4.06308875
   Si      7.72160467     13.37421415     11.43651971      4.06308816
   Si     11.58240743     13.37421466     11.43652343      4.06308870
   Si     15.44321210     13.37421472     11.43652663      4.06308902
   Si     19.30401695     13.37421444     11.43652408      4.06308856
   Si     23.16481969     13.37421396     11.43651974      4.06308811
   Si     27.02562142     13.37421352     11.43651863      4.06308821
   Si     30.88642363     13.37421358     11.43651894      4.06308820
   Si      9.65200649     16.71776756     11.43651868      4.06308870
   Si     13.51280979     16.71776822     11.43652167      4.06308893
   Si     17.37361430     16.71776817     11.43652242      4.06308892
   Si     21.23441792     16.71776750     11.43651964      4.06308862
   Si     25.09522014     16.71776658     11.43651807      4.06308868
   Si     28.95602257     16.71776610     11.43651843      4.06308895
   Si     32.81682527     16.71776657     11.43651804      4.06308869
   Si     11.58240867     20.06132059     11.43651830      4.06308885
   Si     15.44321200     20.06132088     11.43651945      4.06308909
   Si     19.30401559     20.06132053     11.43651858      4.06308874
   Si     23.16481825     20.06131967     11.43651773      4.06308882
   Si     27.02562090     20.06131881     11.43651929      4.06308957
   Si     30.88642432     20.06131879     11.43651976      4.06308955
   Si     34.74722733     20.06131967     11.43651824      4.06308891
