   61
Geometry Step: 0
    H     11.58240908      8.90630932      2.86193171      1.05456432
    H      7.71850805      8.91793037      2.86125925      1.05878194
    H     15.44631011      8.91793037      2.86125925      1.05618310
    H      9.66052267      5.57750442      2.86193170      1.05673912
    H      5.79120454      5.56194977      2.86140756      1.05404923
    H     13.50429548      5.57750442      2.86193170      1.05484610
    H      7.71239285      2.23435394      2.86140755      1.05362393
    H      3.87001622      2.23435394      2.86140755      1.05549530
    H     11.58240908      2.22545752      2.86125925      1.05865139
   Si     11.58240908      8.91614266      4.36424935      3.90583985
   Si      7.72160605      8.91614266      4.36424935      3.90349740
   Si     15.44321210      8.91614266      4.36424935      3.89448380
   Si      9.65200756      5.57258916      4.36424935      3.91346546
   Si      5.79120454      5.57258916      4.36424935      3.90422781
   Si     13.51281059      5.57258916      4.36424935      3.90716673
   Si      7.72160605      2.22903567      4.36424935      3.90366587
   Si      3.86080303      2.22903567      4.36424935      3.91258005
   Si     11.58240908      2.22903567      4.36424935      3.90208961
   Si      9.65200756      7.80162483      5.15233247      4.02670267
   Si      5.79120454      7.80162483      5.15233247      4.02650892
   Si     13.51281059      7.80162483      5.15233247      4.02810745
   Si      7.72160605      4.45807133      5.15233247      4.02816329
   Si      3.86080303      4.45807133      5.15233247      4.03154346
   Si     11.58240908      4.45807133      5.15233247      4.02899302
   Si      5.79120454      1.11451783      5.15233247      4.03116096
   Si      1.93040151      1.11451783      5.15233247      4.03135788
   Si      9.65200756      1.11451783      5.15233247      4.03064465
   Si      9.42370900      7.56125797      7.52614791      4.01882305
   Si      5.69986368      7.66152927      7.58901603      3.97047922
   Si     13.39398561      7.59347921      7.47190270      3.98480735
   Si      7.63237263      4.30069019      7.55586447      4.01820998
   Si      3.69402600      4.27509259      7.43272334      4.00491247
   Si     11.38293658      4.19596243      7.51594569      4.01466271
   Si      5.64661855      0.87004379      7.43035136      4.00545023
   Si      1.72996071      0.86683764      7.50051219      3.97720832
   Si      9.57698325      0.91362288      7.57600051      3.97076910
   Si     11.41023520      6.45273693      8.25516613      3.96719719
   Si      7.50138797      6.46343302      8.63286700      4.00867581
   Si      3.71522599      6.46035484      8.28327179      4.02690533
   Si      9.45487962      3.07989287      8.57752744      4.00447874
   Si      5.64871478      3.12777987      8.03003516      3.94691647
   Si      1.77373985      3.10474895      8.20973796      3.99730241
   Si      7.54899956     -0.22774789      8.26510309      4.02212491
   Si      3.68810346     -0.22836279      8.23019636      3.99742253
   Si     -0.13297808     -0.19405880      8.58319336      4.20383996
   Si     10.41808571      5.73124230     10.32853084      4.02003026
   Si      7.07099391      6.41391010     11.09678115      3.96218451
   Si      2.91856734      5.61674168     10.56344513      3.98459081
   Si      9.15893929      2.80193081     11.00893798      3.95776857
   Si      5.70190837      3.01403396     10.35119064      4.02280773
   Si      1.90226515      3.39256691     10.60425582      3.97413327
   Si      6.47190528     -0.67675923     10.51393301      3.98102616
   Si      4.03922494     -0.43610710     10.63617169      3.98058184
   Si      9.32325198      7.36273700     11.73442533      3.99432325
   Si     12.56384381      7.00849136     11.09414335      3.96671015
   Si      5.09399416      4.97350537     11.59794352      4.02146562
   Si      7.10300461      1.47302427     11.56221508      4.02478253
   Si      3.74089353      1.91640755     11.30591153      4.05404180
   Si     11.32252741      3.92967546     11.70907518      3.99668247
   Si      5.39675231      2.82495651     12.91469626      3.98707327
   Si     11.19443542      6.14053791     12.85854796      4.01847869
