   61
Geometry Step: 0
    H     11.58240908      8.90630932      2.86193171      1.05642186
    H      7.71850805      8.91793037      2.86125925      1.05754505
    H     15.44631011      8.91793037      2.86125925      1.05776299
    H      9.66052267      5.57750442      2.86193170      1.05411951
    H      5.79120454      5.56194977      2.86140756      1.05460349
    H     13.50429548      5.57750442      2.86193170      1.05517968
    H      7.71239285      2.23435394      2.86140755      1.05412301
    H      3.87001622      2.23435394      2.86140755      1.05492148
    H     11.58240908      2.22545752      2.86125925      1.05579597
   Si     11.58240908      8.91614266      4.36424935      3.90932993
   Si      7.72160605      8.91614266      4.36424935      3.89772644
   Si     15.44321210      8.91614266      4.36424935      3.90192731
   Si      9.65200756      5.57258916      4.36424935      3.90214826
   Si      5.79120454      5.57258916      4.36424935      3.90521893
   Si     13.51281059      5.57258916      4.36424935      3.90523957
   Si      7.72160605      2.22903567      4.36424935      3.90560149
   Si      3.86080303      2.22903567      4.36424935      3.90659611
   Si     11.58240908      2.22903567      4.36424935      3.89688060
   Si      9.65200756      7.80162483      5.15233247      4.03156849
   Si      5.79120454      7.80162483      5.15233247      4.02756556
   Si     13.51281059      7.80162483      5.15233247      4.03178553
   Si      7.72160605      4.45807133      5.15233247      4.03131462
   Si      3.86080303      4.45807133      5.15233247      4.02923578
   Si     11.58240908      4.45807133      5.15233247      4.03192441
   Si      5.79120454      1.11451783      5.15233247      4.02774701
   Si      1.93040151      1.11451783      5.15233247      4.03246356
   Si      9.65200756      1.11451783      5.15233247      4.03294713
   Si      9.67614048      8.03761205      7.51025921      4.00350581
   Si      5.82221561      7.93031894      7.50225286      3.98159077
   Si     13.49587284      7.93818939      7.52852773      4.01680742
   Si      7.85956800      4.56828203      7.49241962      3.99490010
   Si      3.88798373      4.61208572      7.49069676      4.02459651
   Si     11.66207985      4.56369389      7.56965002      4.01271348
   Si      5.87316817      1.26755380      7.48432208      4.02455347
   Si      1.98779117      1.25059092      7.64161485      3.97943685
   Si      9.80935261      1.15458609      7.60461019      3.98724073
   Si     11.54472409      6.83441209      8.28593908      3.95706251
   Si      7.77406820      6.83320104      8.26677587      4.04314505
   Si      3.85597640      6.83025157      8.31130016      3.99526049
   Si      9.75168874      3.43483313      8.41388293      4.00460804
   Si      5.87002980      3.53027958      8.14784614      3.93761916
   Si      2.03236097      3.53716495      8.50080708      4.00229841
   Si      7.77268850      0.16264624      8.35894397      3.99870851
   Si      3.99022675      0.22147715      8.43653632      3.99427652
   Si      0.14852376      0.01274364      8.61114479      4.14124174
   Si      9.44021875      8.09109949     11.69753466      4.05625159
   Si      7.17970245      7.63295603     10.51940714      3.98592242
   Si      3.39519513      6.39342987     10.63249985      3.97126322
   Si      9.63970265      3.95164083     10.75632800      3.96191627
   Si      5.90788341      3.77580932     10.41685550      4.00014150
   Si      2.24870119      4.30562493     10.78364250      3.96058336
   Si      7.21397035      0.36678112     10.72231022      3.96486551
   Si      4.63596662      0.28016183     10.80552116      3.99789595
   Si     11.35959798      7.51997524     10.44200776      3.95062998
   Si     13.47379576      8.12587605     11.63167674      4.06492490
   Si      5.68776902      5.89591888     11.44102525      4.04737912
   Si      7.65333193      2.81792338     11.61931630      4.02878581
   Si      4.14179296      2.77931312     11.72052206      4.09473106
   Si     11.63015124      5.04793281     11.37069961      3.99585713
   Si      6.03955208      4.05495182     13.06345477      3.93939890
   Si     11.54853202      6.96599476     12.88191315      3.97219392
