  347
Geometry Step: 0
    H     34.74248669     22.28370520      2.86198154      1.05348564
    H     30.88447632     22.29853145      2.86169981      1.05439508
    H     27.02562117     22.28359979      2.86216685      1.05276273
    H     23.16676603     22.29853145      2.86169986      1.05439508
    H     19.30875566     22.28370518      2.86198162      1.05348563
    H     15.44467676     22.28951116      2.86095110      1.05822109
    H     38.60656560     22.28951116      2.86095107      1.05822109
    H     32.81828879     18.94764881      2.86211556      1.05300360
    H     28.95331782     18.94792648      2.86222709      1.05261101
    H     25.09792453     18.94792648      2.86222712      1.05261101
    H     21.23295356     18.94764881      2.86211563      1.05300359
    H     17.38174794     18.94602452      2.86198180      1.05348553
    H     13.51281059     18.93095759      2.86133627      1.05450384
    H     36.66949442     18.94602451      2.86198174      1.05348553
    H     30.88604417     15.60034558      2.86222668      1.05261105
    H     27.02562117     15.60325024      2.86149029      1.05494660
    H     23.16519817     15.60034558      2.86222672      1.05261105
    H     19.29790960     15.59747513      2.86169943      1.05439533
    H     15.44585029     15.59306649      2.86245783      1.05201097
    H     11.57977090     15.59306649      2.86245781      1.05201097
    H     34.75333276     15.59747513      2.86169938      1.05439534
    H     28.95835106     12.26147761      2.86222660      1.05261080
    H     25.09289129     12.26147761      2.86222661      1.05261081
    H     21.24026765     12.26307447      2.86216605      1.05276296
    H     17.37001935     12.26370240      2.86252404      1.05162152
    H     13.51281060     12.25748813      2.86136964      1.05452168
    H      9.65560183     12.26370239      2.86252402      1.05162152
    H     32.81097470     12.26307447      2.86216603      1.05276296
    H     27.02562118      8.91445325      2.86211513      1.05300417
    H     23.15675926      8.91374240      2.86169928      1.05439531
    H     19.30568480      8.91102459      2.86252380      1.05162174
    H     15.44495030      8.91714637      2.86240507      1.05194609
    H     11.58067088      8.91714638      2.86240507      1.05194609
    H      7.71993638      8.91102458      2.86252381      1.05162173
    H     30.89448309      8.91374239      2.86169928      1.05439530
    H     25.09860894      5.58001626      2.86198120      1.05348624
    H     21.22691435      5.57996149      2.86245759      1.05201052
    H     17.37170539      5.57368869      2.86136929      1.05452213
    H     13.51281059      5.57057894      2.86240520      1.05194632
    H      9.65391579      5.57368868      2.86136932      1.05452212
    H      5.79870682      5.57996149      2.86245762      1.05201052
    H     28.95263341      5.58001627      2.86198122      1.05348624
    H     23.15109226      2.23695660      2.86133611      1.05450341
    H     19.29387882      2.23184711      2.86245783      1.05201039
    H     15.44848111      2.23014629      2.86252440      1.05162160
    H     11.57714007      2.23014629      2.86252442      1.05162160
    H      7.73174236      2.23184710      2.86245789      1.05201038
    H      3.87452892      2.23695659      2.86133616      1.05450340
    H     27.02562118      2.23072362      2.86095105      1.05822103
   Si     34.74722723     22.29035666      4.36424935      3.90859432
   Si     30.88642420     22.29035666      4.36424935      3.90931364
   Si     27.02562118     22.29035666      4.36424935      3.90806240
   Si     23.16481815     22.29035666      4.36424935      3.90931364
   Si     19.30401513     22.29035666      4.36424935      3.90859432
   Si     15.44321210     22.29035666      4.36424935      3.90198921
   Si     38.60803025     22.29035666      4.36424935      3.90198921
   Si     32.81682571     18.94680316      4.36424935      3.90797369
   Si     28.95602269     18.94680316      4.36424935      3.90813099
   Si     25.09521966     18.94680316      4.36424935      3.90813099
   Si     21.23441664     18.94680316      4.36424935      3.90797370
   Si     17.37361361     18.94680316      4.36424935      3.90859391
   Si     13.51281059     18.94680316      4.36424935      3.91512465
   Si     36.67762874     18.94680316      4.36424935      3.90859390
   Si     30.88642420     15.60324966      4.36424935      3.90813107
   Si     27.02562118     15.60324966      4.36424935      3.90889877
   Si     23.16481815     15.60324966      4.36424935      3.90813107
   Si     19.30401513     15.60324966      4.36424935      3.90931388
   Si     15.44321210     15.60324966      4.36424935      3.90843596
   Si     11.58240908     15.60324966      4.36424935      3.90843595
   Si     34.74722723     15.60324966      4.36424935      3.90931388
   Si     28.95602269     12.25969616      4.36424935      3.90813082
   Si     25.09521966     12.25969616      4.36424935      3.90813082
   Si     21.23441664     12.25969616      4.36424935      3.90806293
   Si     17.37361361     12.25969616      4.36424935      3.90907039
   Si     13.51281059     12.25969616      4.36424935      3.91022414
   Si      9.65200756     12.25969616      4.36424935      3.90907039
   Si     32.81682571     12.25969616      4.36424935      3.90806293
   Si     27.02562118      8.91614266      4.36424935      3.90797323
   Si     23.16481815      8.91614266      4.36424935      3.90931365
   Si     19.30401513      8.91614266      4.36424935      3.90907020
   Si     15.44321210      8.91614266      4.36424935      3.90801067
   Si     11.58240908      8.91614266      4.36424935      3.90801067
   Si      7.72160605      8.91614266      4.36424935      3.90907019
   Si     30.88642420      8.91614266      4.36424935      3.90931365
   Si     25.09521966      5.57258916      4.36424935      3.90859410
   Si     21.23441664      5.57258916      4.36424935      3.90843657
   Si     17.37361361      5.57258916      4.36424935      3.91022430
   Si     13.51281059      5.57258916      4.36424935      3.90801035
   Si      9.65200756      5.57258916      4.36424935      3.91022431
   Si      5.79120454      5.57258916      4.36424935      3.90843657
   Si     28.95602269      5.57258916      4.36424935      3.90859410
   Si     23.16481815      2.22903567      4.36424935      3.91512540
   Si     19.30401513      2.22903567      4.36424935      3.90843644
   Si     15.44321210      2.22903567      4.36424935      3.90907014
   Si     11.58240908      2.22903567      4.36424935      3.90907014
   Si      7.72160605      2.22903567      4.36424935      3.90843644
   Si      3.86080303      2.22903567      4.36424935      3.91512540
   Si     27.02562118      2.22903567      4.36424935      3.90198907
   Si     32.81682571     21.17583883      5.15233247      4.03623741
   Si     28.95602269     21.17583883      5.15233247      4.03717803
   Si     25.09521966     21.17583883      5.15233247      4.03717802
   Si     21.23441664     21.17583883      5.15233247      4.03623740
   Si     17.37361361     21.17583883      5.15233247      4.03752567
   Si     13.51281059     21.17583883      5.15233247      4.01905550
   Si     36.67762874     21.17583883      5.15233247      4.03752567
   Si     30.88642420     17.83228533      5.15233247      4.02388461
   Si     27.02562118     17.83228533      5.15233247      4.03580537
   Si     23.16481815     17.83228533      5.15233247      4.02388460
   Si     19.30401513     17.83228533      5.15233247      4.03623683
   Si     15.44321210     17.83228533      5.15233247      4.03790513
   Si     11.58240908     17.83228533      5.15233247      4.03790513
   Si     34.74722723     17.83228533      5.15233247      4.03623685
   Si     28.95602269     14.48873183      5.15233247      4.03580725
   Si     25.09521966     14.48873183      5.15233247      4.03580723
   Si     21.23441664     14.48873183      5.15233247      4.03717678
   Si     17.37361361     14.48873183      5.15233247      4.02044751
   Si     13.51281059     14.48873183      5.15233247      4.03675351
   Si      9.65200756     14.48873183      5.15233247      4.02044753
   Si     32.81682571     14.48873183      5.15233247      4.03717681
   Si     27.02562118     11.14517833      5.15233247      4.02388821
   Si     23.16481815     11.14517833      5.15233247      4.03717699
   Si     19.30401513     11.14517833      5.15233247      4.04103192
   Si     15.44321210     11.14517833      5.15233247      4.03705223
   Si     11.58240908     11.14517833      5.15233247      4.03705224
   Si      7.72160605     11.14517833      5.15233247      4.04103195
   Si     30.88642420     11.14517833      5.15233247      4.03717702
   Si     25.09521966      7.80162483      5.15233247      4.03623611
   Si     21.23441664      7.80162483      5.15233247      4.02044494
   Si     17.37361361      7.80162483      5.15233247      4.03705008
   Si     13.51281059      7.80162483      5.15233247      4.02068188
   Si      9.65200756      7.80162483      5.15233247      4.03705010
   Si      5.79120454      7.80162483      5.15233247      4.02044496
   Si     28.95602269      7.80162483      5.15233247      4.03623611
   Si     23.16481815      4.45807133      5.15233247      4.03790590
   Si     19.30401513      4.45807133      5.15233247      4.03675080
   Si     15.44321210      4.45807133      5.15233247      4.03704961
   Si     11.58240908      4.45807133      5.15233247      4.03704961
   Si      7.72160605      4.45807133      5.15233247      4.03675079
   Si      3.86080303      4.45807133      5.15233247      4.03790590
   Si     27.02562118      4.45807133      5.15233247      4.03752260
   Si     21.23441664      1.11451783      5.15233247      4.03790622
   Si     17.37361361      1.11451783      5.15233247      4.02044702
   Si     13.51281059      1.11451783      5.15233247      4.04103457
   Si      9.65200756      1.11451783      5.15233247      4.02044702
   Si      5.79120454      1.11451783      5.15233247      4.03790621
   Si      1.93040151      1.11451783      5.15233247      4.01905457
   Si     25.09521966      1.11451783      5.15233247      4.01905457
   Si     32.81682571     21.17583883      7.51658182      4.00870683
   Si     28.95602269     21.17583883      7.51658182      4.01200943
   Si     25.09521966     21.17583883      7.51658182      4.01200942
   Si     21.23441664     21.17583883      7.51658182      4.00870682
   Si     17.37361361     21.17583883      7.51658182      4.00466811
   Si     13.51281059     21.17583883      7.51658182      3.97681592
   Si     36.67762874     21.17583883      7.51658182      4.00466811
   Si     30.88642420     17.83228533      7.51658182      4.01997564
   Si     27.02562118     17.83228533      7.51658182      4.01239493
   Si     23.16481815     17.83228533      7.51658182      4.01997561
   Si     19.30401513     17.83228533      7.51658182      4.00870842
   Si     15.44321210     17.83228533      7.51658182      4.03333600
   Si     11.58240908     17.83228533      7.51658182      4.03333602
   Si     34.74722723     17.83228533      7.51658182      4.00870842
   Si     28.95602269     14.48873183      7.51658182      4.01239408
   Si     25.09521966     14.48873183      7.51658182      4.01239408
   Si     21.23441664     14.48873183      7.51658182      4.01201223
   Si     17.37361361     14.48873183      7.51658182      3.99079220
   Si     13.51281059     14.48873183      7.51658182      4.00885104
   Si      9.65200756     14.48873183      7.51658182      3.99079220
   Si     32.81682571     14.48873183      7.51658182      4.01201222
   Si     27.02562118     11.14517833      7.51658182      4.01997325
   Si     23.16481815     11.14517833      7.51658182      4.01201291
   Si     19.30401513     11.14517833      7.51658182      4.03065714
   Si     15.44321210     11.14517833      7.51658182      4.01159208
   Si     11.58240908     11.14517833      7.51658182      4.01159207
   Si      7.72160605     11.14517833      7.51658182      4.03065712
   Si     30.88642420     11.14517833      7.51658182      4.01201288
   Si     25.09521966      7.80162483      7.51658182      4.00870654
   Si     21.23441664      7.80162483      7.51658182      3.99079456
   Si     17.37361361      7.80162483      7.51658182      4.01159416
   Si     13.51281059      7.80162483      7.51658182      4.02603455
   Si      9.65200756      7.80162483      7.51658182      4.01159414
   Si      5.79120454      7.80162483      7.51658182      3.99079455
   Si     28.95602269      7.80162483      7.51658182      4.00870653
   Si     23.16481815      4.45807133      7.51658182      4.03333756
   Si     19.30401513      4.45807133      7.51658182      4.00885463
   Si     15.44321210      4.45807133      7.51658182      4.01159336
   Si     11.58240908      4.45807133      7.51658182      4.01159336
   Si      7.72160605      4.45807133      7.51658182      4.00885461
   Si      3.86080303      4.45807133      7.51658182      4.03333755
   Si     27.02562118      4.45807133      7.51658182      4.00466771
   Si     21.23441664      1.11451783      7.51658182      4.03333699
   Si     17.37361361      1.11451783      7.51658182      3.99079017
   Si     13.51281059      1.11451783      7.51658182      4.03065242
   Si      9.65200756      1.11451783      7.51658182      3.99079017
   Si      5.79120454      1.11451783      7.51658182      4.03333697
   Si      1.93040151      1.11451783      7.51658182      3.97681477
   Si     25.09521966      1.11451783      7.51658182      3.97681477
   Si     34.74650252     20.06090314      8.06998545      3.90351618
   Si     30.88886037     20.06268320      8.39529493      4.00673011
   Si     27.02562115     20.06006979      8.04949495      3.88495766
   Si     23.16238199     20.06268318      8.39529498      4.00673011
   Si     19.30473986     20.06090312      8.06998562      3.90351602
   Si     15.44539461     20.04040333      8.35182348      3.99784449
   Si     11.58022656     20.04040334      8.35182348      3.99784449
   Si     32.81921607     16.71919878      8.39530447      4.00673035
   Si     28.96790510     16.72463466      8.39731803      4.00869789
   Si     25.08333725     16.72463466      8.39731810      4.00869791
   Si     21.23202629     16.71919880      8.39530458      4.00673036
   Si     17.35622475     16.74875507      8.38001059      4.01900620
   Si     13.51281060     16.71984751      8.05294418      3.88628382
   Si      9.66939639     16.74875503      8.38001044      4.01900619
   Si     30.88533722     13.37484078      8.04949104      3.88495729
   Si     27.02562118     13.36049488      8.39728426      4.00869194
   Si     23.16590513     13.37484081      8.04949151      3.88495729
   Si     19.31856248     13.34850218      8.37135706      4.01578445
   Si     15.45521244     13.38301368      8.39500801      4.01243709
   Si     11.57040874     13.38301367      8.39500790      4.01243708
   Si      7.70705872     13.34850218      8.37135688      4.01578445
   Si     28.95597876     10.02787029      8.39527201      4.00672383
   Si     25.09526361     10.02787029      8.39527206      4.00672384
   Si     21.21941111     10.05611262      8.37136434      4.01578387
   Si     17.37452359     10.03119127      8.03821349      3.88040483
   Si     13.51281059     10.02780176      8.39565319      4.00701799
   Si      9.65109759     10.03119126      8.03821316      3.88040482
   Si      5.80621006     10.05611263      8.37136422      4.01578386
   Si     27.02562118      6.68794801      8.07004677      3.90352968
   Si     23.18295860      6.65656248      8.38002038      4.01900802
   Si     19.31762752      6.69311915      8.39505544      4.01244550
   Si     15.44073111      6.68854088      8.39568766      4.00702783
   Si     11.58489006      6.68854088      8.39568761      4.00702782
   Si      7.70799366      6.69311916      8.39505536      4.01244548
   Si      3.84266259      6.65656249      8.38002028      4.01900800
   Si     25.07819169      3.35590422      8.35183555      3.99784584
   Si     21.23621757      3.34251606      8.05288972      3.88627203
   Si     17.37522195      3.32876312      8.39504577      4.01244503
   Si     13.51281058      3.34250045      8.03822478      3.88040706
   Si      9.65039923      3.32876312      8.39504581      4.01244502
   Si      5.78940361      3.34251605      8.05288981      3.88627199
   Si      1.94742953      3.35590423      8.35183558      3.99784585
   Si     23.14561335      0.00857642      8.35184205      3.99784736
   Si     19.33954143     -0.00043174      8.38001285      4.01901005
   Si     15.41367499      0.00026529      8.37132264      4.01578172
   Si     11.61194620      0.00026526      8.37132269      4.01578171
   Si      7.68607971     -0.00043171      8.38001290      4.01901004
   Si      3.88000785      0.00857646      8.35184207      3.99784736
   Si      0.00000000      0.00000667      8.50416903      4.24411277
   Si     34.70769458     20.03851528     10.34363595      4.04744904
   Si     30.90444644     20.06291691     10.83785061      3.90887586
   Si     27.02562141     20.01622828     10.31410178      4.03938246
   Si     23.14679612     20.06291696     10.83785079      3.90887584
   Si     19.34354751     20.03851546     10.34363555      4.04744901
   Si     15.76875523     19.51368177     10.67995498      3.93552869
   Si     11.25686557     19.51368174     10.67995485      3.93552869
   Si     32.82719801     16.73258599     10.83786355      3.90887400
   Si     29.06419333     16.78025020     10.84162402      3.94286654
   Si     24.98704929     16.78025020     10.84162423      3.94286652
   Si     21.22404439     16.73258600     10.83786386      3.90887398
   Si     17.00541265     17.37596252     10.70311740      3.96789035
   Si     13.51281029     16.67350618     10.31714084      4.04206574
   Si     10.02020808     17.37596249     10.70311717      3.96789036
   Si     30.84740855     13.39685822     10.31409653      4.03938437
   Si     27.02562131     13.24928890     10.84157215      3.94287807
   Si     23.20383393     13.39685802     10.31409677      4.03938439
   Si     19.66599752     12.76824305     10.69660328      3.97382400
   Si     15.43819841     13.39059717     10.82864148      3.91220303
   Si     11.58742256     13.39059715     10.82864129      3.91220304
   Si      7.35962367     12.76824315     10.69660298      3.97382401
   Si     28.94838182     10.01424985     10.83781260      3.90888083
   Si     25.10286069     10.01424973     10.83781273      3.90888083
   Si     20.89057706     10.64712889     10.69661094      3.97382137
   Si     17.33937892     10.01078414     10.29413101      4.03445213
   Si     13.51281056     10.15831307     10.82778291      3.94499502
   Si      9.68624224     10.01078428     10.29413083      4.03445208
   Si      6.13504411     10.64712904     10.69661067      3.97382138
   Si     27.02562120      6.73283132     10.34370281      4.04744873
   Si     23.55073681      6.03916332     10.70313661      3.96789060
   Si     19.31563398      6.67464994     10.82871835      3.91219572
   Si     15.55372485      6.62329067     10.82784811      3.94497999
   Si     11.47189639      6.62329074     10.82784802      3.94497997
   Si      7.70998730      6.67465021     10.82871820      3.91219570
   Si      3.47488444      6.03916351     10.70313648      3.96789060
   Si     24.78372350      3.89932439     10.67997266      3.93552726
   Si     21.19613323      3.36567144     10.31708560      4.04206671
   Si     17.39025067      3.33972311     10.82869892      3.91220007
   Si     13.51281070      3.38313589     10.29414409      4.03445032
   Si      9.63537066      3.33972323     10.82869895      3.91220004
   Si      5.82948809      3.36567186     10.31708561      4.04206664
   Si      2.24189790      3.89932456     10.67997263      3.93552725
   Si     22.52778675     -0.00808511     10.67999455      3.93553295
   Si     20.05813516     -0.01021881     10.70313518      3.96789335
   Si     14.73742169     -0.01047638     10.69656786      3.97382251
   Si     12.28819970     -0.01047641     10.69656789      3.97382250
   Si      6.96748597     -0.01021848     10.70313527      3.96789335
   Si      4.49783447     -0.00808470     10.67999464      3.93553294
   Si     32.97662097     21.17862750     11.51720597      4.05383197
   Si     28.79739199     21.14682630     11.47488699      4.04858271
   Si     25.25385085     21.14682621     11.47488711      4.04858269
   Si     21.07462125     21.17862758     11.51720592      4.05383184
   Si     17.51438021     21.09456361     11.50518536      4.07057748
   Si     27.02562140     17.93494079     11.45110959      4.02483775
   Si     23.10118458     17.86905260     11.89775137      4.24317277
   Si     19.22171132     17.96927802     11.51717788      4.05382964
   Si     13.51281030     18.78444819     11.46837354      4.06486929
   Si     36.53686201     21.09456338     11.50518537      4.07057761
   Si     30.95005799     17.86905257     11.89775119      4.24317289
   Si     25.00635148     14.43742445     11.45105599      4.02483502
   Si     21.33887127     14.36587971     11.47501062      4.04859808
   Si     15.36798824     15.74964249     11.48284026      4.04757262
   Si     11.65763227     15.74964243     11.48284005      4.04757265
   Si     34.82953081     17.96927781     11.51717775      4.05382976
   Si     29.04489112     14.43742457     11.45105563      4.02483494
   Si     27.02562131     11.07169455     11.89769831      4.24317392
   Si     23.11066268     11.29708388     11.47479537      4.04857326
   Si     17.43705803     12.10933134     11.44793180      4.04665896
   Si     13.51281044     12.33432460     11.88897652      4.24128075
   Si      9.58856301     12.10933140     11.44793143      4.04665893
   Si     32.71237124     14.36587986     11.47501001      4.04859804
   Si     25.17268809      7.66186631     11.51728855      4.05384589
   Si     19.20550740      9.04633808     11.44823080      4.04668976
   Si     15.53563706      8.96953302     11.42555340      4.02274766
   Si     11.48998397      8.96953311     11.42555312      4.02274758
   Si      7.82011375      9.04633832     11.44823033      4.04668970
   Si     30.94057979     11.29708413     11.47479489      4.04857320
   Si     27.02562130      4.62065868     11.50517222      4.07058423
   Si     21.32354253      5.43428138     11.48272868      4.04755575
   Si     17.43820247      5.53529082     11.88904926      4.24127765
   Si     13.51281059      5.46583683     11.42560185      4.02275045
   Si      9.58741875      5.53529102     11.88904908      4.24127765
   Si      5.70207874      5.43428180     11.48272856      4.04755568
   Si     28.87855434      7.66186646     11.51728837      4.05384588
   Si     23.02421759      2.31025128     11.46845298      4.06486663
   Si     19.46839495      2.22102691     11.48275072      4.04755761
   Si     15.28123306      2.24924173     11.44807413      4.04667416
   Si     11.74438830      2.24924175     11.44807403      4.04667413
   Si      7.55722624      2.22102732     11.48275080      4.04755751
   Si      4.00140383      2.31025176     11.46845311      4.06486655
   Si      5.77991466      3.33708121     12.88635340      3.92321990
   Si     13.51281062      3.35483586     12.83645963      3.90393738
   Si     21.24570665      3.33708062     12.88635349      3.92322000
   Si      9.66193559     10.02516222     12.83644558      3.90393823
   Si     17.36368544     10.02516210     12.83644609      3.90393820
   Si     13.51281014     16.73091103     12.88643300      3.92321021
   Si     27.02562131      6.67622469     12.92435173      3.91646934
   Si     23.17857660     13.38201511     12.85950006      3.89872119
   Si     30.87266600     13.38201537     12.85949939      3.89872127
   Si     19.29460179     20.06673111     12.92425504      3.91647921
   Si     27.02562153     20.04559156     12.85950958      3.89871945
   Si     34.75664033     20.06673082     12.92425515      3.91647934
