   61
Geometry Step: 0
    H     11.58240908      8.90630932      2.86193171      1.05364709
    H      7.71850805      8.91793037      2.86125925      1.05301324
    H     15.44631011      8.91793037      2.86125925      1.05534338
    H      9.66052267      5.57750442      2.86193170      1.05424365
    H      5.79120454      5.56194977      2.86140756      1.05686947
    H     13.50429548      5.57750442      2.86193170      1.05888291
    H      7.71239285      2.23435394      2.86140755      1.05268207
    H      3.87001622      2.23435394      2.86140755      1.05638619
    H     11.58240908      2.22545752      2.86125925      1.05865683
   Si     11.58240908      8.91614266      4.36424935      3.91950382
   Si      7.72160605      8.91614266      4.36424935      3.90429788
   Si     15.44321210      8.91614266      4.36424935      3.90583214
   Si      9.65200756      5.57258916      4.36424935      3.91517083
   Si      5.79120454      5.57258916      4.36424935      3.90655495
   Si     13.51281059      5.57258916      4.36424935      3.90942004
   Si      7.72160605      2.22903567      4.36424935      3.90997937
   Si      3.86080303      2.22903567      4.36424935      3.90226726
   Si     11.58240908      2.22903567      4.36424935      3.92013355
   Si      9.65200756      7.80162483      5.15233247      4.01753269
   Si      5.79120454      7.80162483      5.15233247      4.02578813
   Si     13.51281059      7.80162483      5.15233247      4.01455521
   Si      7.72160605      4.45807133      5.15233247      4.03560328
   Si      3.86080303      4.45807133      5.15233247      4.02340693
   Si     11.58240908      4.45807133      5.15233247      3.99775923
   Si      5.79120454      1.11451783      5.15233247      4.02364757
   Si      1.93040151      1.11451783      5.15233247      4.02430119
   Si      9.65200756      1.11451783      5.15233247      4.03747829
   Si      9.55386579      8.05827123      7.66455016      3.98581061
   Si      5.69204898      7.92327705      7.53655736      4.02419537
   Si     13.55605335      7.90483766      7.65162705      3.96651861
   Si      7.85412645      4.63748775      7.45222740      3.99219904
   Si      3.80849217      4.60279505      7.52819544      4.01001123
   Si     11.73648786      4.18755434      7.57440782      3.97406665
   Si      5.82218644      1.21917963      7.40366983      3.99933037
   Si      1.74950230      1.31291405      7.53662119      4.01576053
   Si      9.70071561      1.09366464      7.55270459      3.99424411
   Si     11.48569646      7.12055135      8.98564693      4.02518131
   Si      7.63835417      6.86492004      8.37102096      3.94234780
   Si      3.88670635      6.78163043      8.60137413      4.08621019
   Si      9.63746491      3.37231979      8.33941895      3.96125607
   Si      5.83891868      3.54034032      8.16861935      3.99598777
   Si      2.13681593      3.36849894      8.74334646      4.13630119
   Si      7.68421979      0.14864964      8.35118156      3.95696744
   Si      3.78732449      0.35223191      8.23288750      4.00643753
   Si      0.02508086      0.01130946      8.63130579      4.04175764
   Si     12.26641667     10.48710949     10.53189754      4.05429566
   Si      8.45401649      8.32064760     13.94158204      4.02329860
   Si      6.45518810      9.30426897     11.15950607      4.04210171
   Si     11.53100642      6.56272796      6.75703367      3.95319404
   Si      6.91883742      4.50306513     10.36223675      4.04383660
   Si      4.57450008      7.56543849     11.45086532      4.01783751
   Si      9.32352510      3.80631758     10.74988029      4.13215422
   Si      5.50858332      2.80125226     11.95781562      3.99270743
   Si     10.43996876     12.06557913      9.83636172      3.90286639
   Si     14.79213258     11.41514074     10.50142991      3.92195006
   Si      7.71975130      6.75836134     10.79461787      4.00343459
   Si      8.21517403      6.06218376     14.47592240      4.05607410
   Si      7.51744842      4.01764355     12.70404934      3.84507675
   Si     15.86083533      9.96500404     11.99208111      4.00615417
   Si      6.55779604      7.25657368     12.95140796      3.92591906
   Si     13.34523940     11.37564280     12.50047071      4.07155843
