  347
Geometry Step: 0
    H     34.74722723     22.29035666      2.80000000      1.05935516
    H     30.88642420     22.29035666      2.80000000      1.06028562
    H     27.02562118     22.29035666      2.80000000      1.05863622
    H     23.16481815     22.29035666      2.80000000      1.06028562
    H     19.30401513     22.29035666      2.80000000      1.05935516
    H     15.44321210     22.29035666      2.80000000      1.06414832
    H     38.60803025     22.29035666      2.80000000      1.06414832
    H     32.81682571     18.94680316      2.80000000      1.05887085
    H     28.95602269     18.94680316      2.80000000      1.05849679
    H     25.09521966     18.94680316      2.80000000      1.05849679
    H     21.23441664     18.94680316      2.80000000      1.05887084
    H     17.37361361     18.94680316      2.80000000      1.05935514
    H     13.51281059     18.94680316      2.80000000      1.06039929
    H     36.67762874     18.94680316      2.80000000      1.05935514
    H     30.88642420     15.60324966      2.80000000      1.05849679
    H     27.02562118     15.60324966      2.80000000      1.06085765
    H     23.16481815     15.60324966      2.80000000      1.05849678
    H     19.30401513     15.60324966      2.80000000      1.06028560
    H     15.44321210     15.60324966      2.80000000      1.05789589
    H     11.58240908     15.60324966      2.80000000      1.05789589
    H     34.74722723     15.60324966      2.80000000      1.06028561
    H     28.95602269     12.25969616      2.80000000      1.05849679
    H     25.09521966     12.25969616      2.80000000      1.05849678
    H     21.23441664     12.25969616      2.80000000      1.05863622
    H     17.37361361     12.25969616      2.80000000      1.05748664
    H     13.51281059     12.25969616      2.80000000      1.06047931
    H      9.65200756     12.25969616      2.80000000      1.05748664
    H     32.81682571     12.25969616      2.80000000      1.05863622
    H     27.02562118      8.91614266      2.80000000      1.05887083
    H     23.16481815      8.91614266      2.80000000      1.06028559
    H     19.30401513      8.91614266      2.80000000      1.05748665
    H     15.44321210      8.91614266      2.80000000      1.05788626
    H     11.58240908      8.91614266      2.80000000      1.05788626
    H      7.72160605      8.91614266      2.80000000      1.05748665
    H     30.88642420      8.91614266      2.80000000      1.06028560
    H     25.09521966      5.57258916      2.80000000      1.05935514
    H     21.23441664      5.57258916      2.80000000      1.05789590
    H     17.37361361      5.57258916      2.80000000      1.06047933
    H     13.51281059      5.57258916      2.80000000      1.05788626
    H      9.65200756      5.57258916      2.80000000      1.06047933
    H      5.79120454      5.57258916      2.80000000      1.05789590
    H     28.95602269      5.57258916      2.80000000      1.05935513
    H     23.16481815      2.22903567      2.80000000      1.06039930
    H     19.30401513      2.22903567      2.80000000      1.05789592
    H     15.44321210      2.22903567      2.80000000      1.05748666
    H     11.58240908      2.22903567      2.80000000      1.05748666
    H      7.72160605      2.22903567      2.80000000      1.05789591
    H      3.86080303      2.22903567      2.80000000      1.06039930
    H     27.02562118      2.22903567      2.80000000      1.06414832
   Si     34.74722723     22.29035666      4.36424935      3.90412255
   Si     30.88642420     22.29035666      4.36424935      3.90497075
   Si     27.02562118     22.29035666      4.36424935      3.90359748
   Si     23.16481815     22.29035666      4.36424935      3.90497075
   Si     19.30401513     22.29035666      4.36424935      3.90412253
   Si     15.44321210     22.29035666      4.36424935      3.89728489
   Si     38.60803025     22.29035666      4.36424935      3.89728489
   Si     32.81682571     18.94680316      4.36424935      3.90349402
   Si     28.95602269     18.94680316      4.36424935      3.90368113
   Si     25.09521966     18.94680316      4.36424935      3.90368113
   Si     21.23441664     18.94680316      4.36424935      3.90349402
   Si     17.37361361     18.94680316      4.36424935      3.90412252
   Si     13.51281059     18.94680316      4.36424935      3.91030151
   Si     36.67762874     18.94680316      4.36424935      3.90412252
   Si     30.88642420     15.60324966      4.36424935      3.90368110
   Si     27.02562118     15.60324966      4.36424935      3.90440683
   Si     23.16481815     15.60324966      4.36424935      3.90368112
   Si     19.30401513     15.60324966      4.36424935      3.90497074
   Si     15.44321210     15.60324966      4.36424935      3.90408363
   Si     11.58240908     15.60324966      4.36424935      3.90408363
   Si     34.74722723     15.60324966      4.36424935      3.90497073
   Si     28.95602269     12.25969616      4.36424935      3.90368111
   Si     25.09521966     12.25969616      4.36424935      3.90368112
   Si     21.23441664     12.25969616      4.36424935      3.90359746
   Si     17.37361361     12.25969616      4.36424935      3.90467126
   Si     13.51281059     12.25969616      4.36424935      3.90579826
   Si      9.65200756     12.25969616      4.36424935      3.90467125
   Si     32.81682571     12.25969616      4.36424935      3.90359744
   Si     27.02562118      8.91614266      4.36424935      3.90349403
   Si     23.16481815      8.91614266      4.36424935      3.90497075
   Si     19.30401513      8.91614266      4.36424935      3.90467126
   Si     15.44321210      8.91614266      4.36424935      3.90344440
   Si     11.58240908      8.91614266      4.36424935      3.90344439
   Si      7.72160605      8.91614266      4.36424935      3.90467125
   Si     30.88642420      8.91614266      4.36424935      3.90497074
   Si     25.09521966      5.57258916      4.36424935      3.90412257
   Si     21.23441664      5.57258916      4.36424935      3.90408363
   Si     17.37361361      5.57258916      4.36424935      3.90579829
   Si     13.51281059      5.57258916      4.36424935      3.90344440
   Si      9.65200756      5.57258916      4.36424935      3.90579827
   Si      5.79120454      5.57258916      4.36424935      3.90408363
   Si     28.95602269      5.57258916      4.36424935      3.90412255
   Si     23.16481815      2.22903567      4.36424935      3.91030150
   Si     19.30401513      2.22903567      4.36424935      3.90408364
   Si     15.44321210      2.22903567      4.36424935      3.90467129
   Si     11.58240908      2.22903567      4.36424935      3.90467129
   Si      7.72160605      2.22903567      4.36424935      3.90408363
   Si      3.86080303      2.22903567      4.36424935      3.91030150
   Si     27.02562118      2.22903567      4.36424935      3.89728491
   Si     32.81682571     21.17583883      5.15233247      4.03450146
   Si     28.95602269     21.17583883      5.15233247      4.03545987
   Si     25.09521966     21.17583883      5.15233247      4.03545987
   Si     21.23441664     21.17583883      5.15233247      4.03450150
   Si     17.37361361     21.17583883      5.15233247      4.03589694
   Si     13.51281059     21.17583883      5.15233247      4.01815644
   Si     36.67762874     21.17583883      5.15233247      4.03589690
   Si     30.88642420     17.83228533      5.15233247      4.02238278
   Si     27.02562118     17.83228533      5.15233247      4.03392644
   Si     23.16481815     17.83228533      5.15233247      4.02238276
   Si     19.30401513     17.83228533      5.15233247      4.03450158
   Si     15.44321210     17.83228533      5.15233247      4.03652345
   Si     11.58240908     17.83228533      5.15233247      4.03652346
   Si     34.74722723     17.83228533      5.15233247      4.03450158
   Si     28.95602269     14.48873183      5.15233247      4.03392647
   Si     25.09521966     14.48873183      5.15233247      4.03392642
   Si     21.23441664     14.48873183      5.15233247      4.03545994
   Si     17.37361361     14.48873183      5.15233247      4.01822757
   Si     13.51281059     14.48873183      5.15233247      4.03502537
   Si      9.65200756     14.48873183      5.15233247      4.01822760
   Si     32.81682571     14.48873183      5.15233247      4.03546001
   Si     27.02562118     11.14517833      5.15233247      4.02238282
   Si     23.16481815     11.14517833      5.15233247      4.03545990
   Si     19.30401513     11.14517833      5.15233247      4.03989793
   Si     15.44321210     11.14517833      5.15233247      4.03522830
   Si     11.58240908     11.14517833      5.15233247      4.03522831
   Si      7.72160605     11.14517833      5.15233247      4.03989800
   Si     30.88642420     11.14517833      5.15233247      4.03545997
   Si     25.09521966      7.80162483      5.15233247      4.03450159
   Si     21.23441664      7.80162483      5.15233247      4.01822748
   Si     17.37361361      7.80162483      5.15233247      4.03522824
   Si     13.51281059      7.80162483      5.15233247      4.01926297
   Si      9.65200756      7.80162483      5.15233247      4.03522827
   Si      5.79120454      7.80162483      5.15233247      4.01822753
   Si     28.95602269      7.80162483      5.15233247      4.03450163
   Si     23.16481815      4.45807133      5.15233247      4.03652337
   Si     19.30401513      4.45807133      5.15233247      4.03502525
   Si     15.44321210      4.45807133      5.15233247      4.03522818
   Si     11.58240908      4.45807133      5.15233247      4.03522820
   Si      7.72160605      4.45807133      5.15233247      4.03502522
   Si      3.86080303      4.45807133      5.15233247      4.03652337
   Si     27.02562118      4.45807133      5.15233247      4.03589691
   Si     21.23441664      1.11451783      5.15233247      4.03652331
   Si     17.37361361      1.11451783      5.15233247      4.01822739
   Si     13.51281059      1.11451783      5.15233247      4.03989784
   Si      9.65200756      1.11451783      5.15233247      4.01822741
   Si      5.79120454      1.11451783      5.15233247      4.03652331
   Si      1.93040151      1.11451783      5.15233247      4.01815646
   Si     25.09521966      1.11451783      5.15233247      4.01815646
   Si     32.81682571     21.17583883      7.51658182      4.00932025
   Si     28.95602269     21.17583883      7.51658182      4.01253146
   Si     25.09521966     21.17583883      7.51658182      4.01253148
   Si     21.23441664     21.17583883      7.51658182      4.00932019
   Si     17.37361361     21.17583883      7.51658182      4.00516557
   Si     13.51281059     21.17583883      7.51658182      3.97725131
   Si     36.67762874     21.17583883      7.51658182      4.00516565
   Si     30.88642420     17.83228533      7.51658182      4.02060581
   Si     27.02562118     17.83228533      7.51658182      4.01292041
   Si     23.16481815     17.83228533      7.51658182      4.02060588
   Si     19.30401513     17.83228533      7.51658182      4.00932006
   Si     15.44321210     17.83228533      7.51658182      4.03385937
   Si     11.58240908     17.83228533      7.51658182      4.03385932
   Si     34.74722723     17.83228533      7.51658182      4.00932002
   Si     28.95602269     14.48873183      7.51658182      4.01292042
   Si     25.09521966     14.48873183      7.51658182      4.01292051
   Si     21.23441664     14.48873183      7.51658182      4.01253142
   Si     17.37361361     14.48873183      7.51658182      3.99107320
   Si     13.51281059     14.48873183      7.51658182      4.00913275
   Si      9.65200756     14.48873183      7.51658182      3.99107318
   Si     32.81682571     14.48873183      7.51658182      4.01253129
   Si     27.02562118     11.14517833      7.51658182      4.02060595
   Si     23.16481815     11.14517833      7.51658182      4.01253134
   Si     19.30401513     11.14517833      7.51658182      4.03121485
   Si     15.44321210     11.14517833      7.51658182      4.01205957
   Si     11.58240908     11.14517833      7.51658182      4.01205955
   Si      7.72160605     11.14517833      7.51658182      4.03121471
   Si     30.88642420     11.14517833      7.51658182      4.01253124
   Si     25.09521966      7.80162483      7.51658182      4.00932033
   Si     21.23441664      7.80162483      7.51658182      3.99107326
   Si     17.37361361      7.80162483      7.51658182      4.01205962
   Si     13.51281059      7.80162483      7.51658182      4.02666407
   Si      9.65200756      7.80162483      7.51658182      4.01205950
   Si      5.79120454      7.80162483      7.51658182      3.99107320
   Si     28.95602269      7.80162483      7.51658182      4.00932023
   Si     23.16481815      4.45807133      7.51658182      4.03385961
   Si     19.30401513      4.45807133      7.51658182      4.00913303
   Si     15.44321210      4.45807133      7.51658182      4.01205982
   Si     11.58240908      4.45807133      7.51658182      4.01205972
   Si      7.72160605      4.45807133      7.51658182      4.00913292
   Si      3.86080303      4.45807133      7.51658182      4.03385945
   Si     27.02562118      4.45807133      7.51658182      4.00516559
   Si     21.23441664      1.11451783      7.51658182      4.03385936
   Si     17.37361361      1.11451783      7.51658182      3.99107345
   Si     13.51281059      1.11451783      7.51658182      4.03121482
   Si      9.65200756      1.11451783      7.51658182      3.99107341
   Si      5.79120454      1.11451783      7.51658182      4.03385925
   Si      1.93040151      1.11451783      7.51658182      3.97725106
   Si     25.09521966      1.11451783      7.51658182      3.97725111
   Si     34.74668610     20.06100978      8.06989683      3.90353608
   Si     30.88900325     20.06253925      8.39587347      4.00715437
   Si     27.02562117     20.06026571      8.04999760      3.88520231
   Si     23.16223904     20.06253934      8.39587365      4.00715436
   Si     19.30455625     20.06100990      8.06989650      3.90353625
   Si     15.44548904     20.04036696      8.35134411      3.99801996
   Si     11.58013218     20.04036685      8.35134426      3.99802001
   Si     32.81916898     16.71939441      8.39587248      4.00715405
   Si     28.96803703     16.72470578      8.39894788      4.00919628
   Si     25.08320536     16.72470583      8.39894824      4.00919639
   Si     21.23207336     16.71939454      8.39587285      4.00715418
   Si     17.35636677     16.74841176      8.38029899      4.01922056
   Si     13.51281055     16.72018829      8.05421620      3.88667792
   Si      9.66925437     16.74841165      8.38029860      4.01922047
   Si     30.88550929     13.37474378      8.04999650      3.88520174
   Si     27.02562124     13.36034295      8.39894815      4.00919635
   Si     23.16573316     13.37474385      8.04999802      3.88520210
   Si     19.31855585     13.34857438      8.37041598      4.01578564
   Si     15.45507245     13.38305395      8.39514579      4.01306679
   Si     11.57054854     13.38305385      8.39514569      4.01306673
   Si      7.70706533     13.34857419      8.37041556      4.01578549
   Si     28.95578696     10.02782076      8.39587260      4.00715423
   Si     25.09545555     10.02782079      8.39587279      4.00715437
   Si     21.21948074     10.05607578      8.37041685      4.01578597
   Si     17.37478492     10.03133839      8.03988342      3.88072134
   Si     13.51281050     10.02789763      8.39689711      4.00757727
   Si      9.65083616     10.03133832      8.03988231      3.88072107
   Si      5.80614054     10.05607568      8.37041617      4.01578575
   Si     27.02562129      6.68773339      8.06989726      3.90353658
   Si     23.18273212      6.65685166      8.38029979      4.01922059
   Si     19.31759943      6.69296104      8.39514716      4.01306696
   Si     15.44081772      6.68849106      8.39689751      4.00757734
   Si     11.58480326      6.68849105      8.39689721      4.00757726
   Si      7.70802164      6.69296102      8.39514656      4.01306682
   Si      3.84288920      6.65685144      8.38029899      4.01922049
   Si     25.07821012      3.35600437      8.35134507      3.99802020
   Si     21.23651194      3.34234517      8.05421787      3.88667867
   Si     17.37533741      3.32886449      8.39514784      4.01306699
   Si     13.51281047      3.34220240      8.03988387      3.88072152
   Si      9.65028351      3.32886452      8.39514734      4.01306692
   Si      5.78910929      3.34234525      8.05421729      3.88667828
   Si      1.94741149      3.35600451      8.35134495      3.99802028
   Si     23.14553196      0.00850745      8.35134554      3.99802006
   Si     19.33917545     -0.00038382      8.38030068      4.01922053
   Si     15.41373569      0.00022965      8.37041755      4.01578580
   Si     11.61188528      0.00022970      8.37041729      4.01578574
   Si      7.68644551     -0.00038360      8.38030026      4.01922051
   Si      3.88008947      0.00850766      8.35134527      3.99802009
   Si      0.00000016      0.00000172      8.50308902      4.24334742
   Si     34.70602574     20.03753257     10.34363388      4.04775921
   Si     30.90452081     20.06258313     10.83829824      3.90880409
   Si     27.02562117     20.01378104     10.31444509      4.03937216
   Si     23.14672119     20.06258403     10.83829824      3.90880424
   Si     19.34521636     20.03753359     10.34363388      4.04775930
   Si     15.76832569     19.51419718     10.67829016      3.93550322
   Si     11.25729536     19.51419620     10.67829018      3.93550321
   Si     32.82696702     16.73281120     10.83829575      3.90880305
   Si     29.06374639     16.77996345     10.84322887      3.94263240
   Si     24.98749632     16.77996370     10.84322940      3.94263258
   Si     21.22427534     16.73281241     10.83829639      3.90880321
   Si     17.00500999     17.37588510     10.70235854      3.96748196
   Si     13.51281039     16.67257853     10.31870672      4.04244279
   Si     10.02061079     17.37588433     10.70235818      3.96748200
   Si     30.84525669     13.39798658     10.31444429      4.03937219
   Si     27.02562157     13.24982864     10.84322956      3.94263268
   Si     23.20598632     13.39798697     10.31444560      4.03937237
   Si     19.66564470     12.76842051     10.69416473      3.97368330
   Si     15.43755565     13.39060172     10.82907310      3.91199235
   Si     11.58806407     13.39060124     10.82907274      3.91199235
   Si      7.35997620     12.76841983     10.69416328      3.97368310
   Si     28.94806615     10.01436160     10.83829603      3.90880316
   Si     25.10317786     10.01436175     10.83829667      3.90880317
   Si     20.89059796     10.64674239     10.69416589      3.97368342
   Si     17.33718810     10.00963143     10.29571952      4.03439089
   Si     13.51281003     10.15808653     10.82929804      3.94481599
   Si      9.68843227     10.00963155     10.29571807      4.03439050
   Si      6.13502342     10.64674229     10.69416414      3.97368326
   Si     27.02562193      6.73468650     10.34363532      4.04776050
   Si     23.55046340      6.03883206     10.70236040      3.96748226
   Si     19.31537877      6.67401704     10.82907538      3.91199266
   Si     15.55356423      6.62339683     10.82929875      3.94481639
   Si     11.47205585      6.62339684     10.82929804      3.94481601
   Si      7.71024205      6.67401768     10.82907406      3.91199234
   Si      3.47515894      6.03883225     10.70235928      3.96748222
   Si     24.78395160      3.89867317     10.67829198      3.93550347
   Si     21.19528163      3.36615076     10.31870994      4.04244361
   Si     17.39063281      3.34025891     10.82907687      3.91199357
   Si     13.51281028      3.38561901     10.29572014      4.03439072
   Si      9.63498760      3.34025930     10.82907592      3.91199326
   Si      5.83033987      3.36615118     10.31870822      4.04244259
   Si      2.24167136      3.89867371     10.67829139      3.93550333
   Si     22.52843890     -0.00799296     10.67829298      3.93550443
   Si     20.05826026     -0.00983835     10.70236208      3.96748354
   Si     14.73776353     -0.01028197     10.69416764      3.97368510
   Si     12.28785693     -0.01028185     10.69416734      3.97368514
   Si      6.96736080     -0.00983747     10.70236131      3.96748346
   Si      4.49718273     -0.00799205     10.67829236      3.93550430
   Si     32.97696138     21.17912013     11.51785905      4.05409091
   Si     28.79678172     21.14684425     11.47351369      4.04829173
   Si     25.25446055     21.14684435     11.47351351      4.04829166
   Si     21.07428051     21.17912125     11.51785867      4.05409098
   Si     17.51392164     21.09483111     11.50233187      4.06985284
   Si     27.02562156     17.93477973     11.45351808      4.02502293
   Si     23.10109995     17.86907238     11.90002117      4.24229683
   Si     19.22110300     17.96932382     11.51785870      4.05409242
   Si     13.51281056     18.78556782     11.46786299      4.06456449
   Si     36.53732084     21.09482987     11.50233212      4.06985280
   Si     30.95014284     17.86907118     11.90002045      4.24229680
   Si     25.00645537     14.43748461     11.45351612      4.02502243
   Si     21.33914134     14.36532435     11.47351332      4.04829249
   Si     15.36813244     15.74983778     11.48470727      4.04820385
   Si     11.65748841     15.74983723     11.48470650      4.04820365
   Si     34.83013887     17.96932251     11.51785786      4.05409212
   Si     29.04478820     14.43748435     11.45351555      4.02502190
   Si     27.02562243     11.07160499     11.90002208      4.24229707
   Si     23.11030876     11.29758159     11.47351411      4.04829303
   Si     17.43706731     12.10940963     11.44733340      4.04654513
   Si     13.51280962     12.33452612     11.89162510      4.24021091
   Si      9.58855263     12.10940875     11.44733211      4.04654461
   Si     32.71210110     14.36532308     11.47351191      4.04829196
   Si     25.17244282      7.66130491     11.51786040      4.05409320
   Si     19.20558995      9.04624541     11.44733458      4.04654498
   Si     15.53497281      8.96912494     11.42849515      4.02295386
   Si     11.49064688      8.96912481     11.42849400      4.02295337
   Si      7.82003091      9.04624574     11.44733214      4.04654433
   Si     30.94093478     11.29758202     11.47351251      4.04829243
   Si     27.02562231      4.62008537     11.50233385      4.06985513
   Si     21.32382420      5.43427927     11.48471266      4.04820557
   Si     17.43841456      5.53517995     11.89162849      4.24021044
   Si     13.51280973      5.46663762     11.42849768      4.02295419
   Si      9.58720537      5.53518034     11.89162616      4.24021069
   Si      5.70179782      5.43427911     11.48470916      4.04820434
   Si     28.87880117      7.66130502     11.51785918      4.05409298
   Si     23.02518313      2.30965693     11.46786651      4.06456414
   Si     19.46850278      2.22076682     11.48471204      4.04820417
   Si     15.28132759      2.24923062     11.44733507      4.04654415
   Si     11.74429233      2.24923081     11.44733393      4.04654402
   Si      7.55711804      2.22076763     11.48470931      4.04820314
   Si      4.00043935      2.30965771     11.46786452      4.06456338
   Si      5.77704188      3.33537892     12.88832259      3.92148119
   Si     13.51280946      3.35273047     12.83780287      3.90269321
   Si     21.24858023      3.33537787     12.88832712      3.92148149
   Si      9.65995173     10.02607478     12.83779810      3.90269234
   Si     17.36566786     10.02607516     12.83780086      3.90269263
   Si     13.51281014     16.73412075     12.88831928      3.92148072
   Si     27.02562257      6.67258119     12.92395790      3.91491425
   Si     23.17664265     13.38104545     12.86037027      3.89755940
   Si     30.87460075     13.38104479     12.86036817      3.89755895
   Si     19.29143087     20.06858680     12.92395659      3.91491428
   Si     27.02562112     20.04766601     12.86037292      3.89756035
   Si     34.75981128     20.06858506     12.92395616      3.91491409
