  175
Geometry Step: 0
    H     23.15753355     15.59513087      2.86220465      1.05273408
    H     19.30401511     15.61433318      2.86183678      1.05385324
    H     15.45049671     15.59513087      2.86220445      1.05273411
    H     11.58968346     15.59904894      2.86049052      1.06008673
    H     27.01834681     15.59904895      2.86049064      1.06008671
    H     21.23608774     12.26065996      2.86231209      1.05228240
    H     17.37194251     12.26065997      2.86231196      1.05228242
    H     13.52348321     12.25744559      2.86220445      1.05273410
    H      9.65200757     12.22742124      2.86143695      1.05463453
    H     25.08454706     12.25744559      2.86220463      1.05273408
    H     19.30401513      8.91421202      2.86231223      1.05228237
    H     15.43361282      8.91059954      2.86183690      1.05385321
    H     11.58490949      8.90306792      2.86266850      1.05115830
    H      7.71910563      8.90306792      2.86266855      1.05115829
    H     23.17441743      8.91059952      2.86183700      1.05385319
    H     17.37700168      5.58295586      2.86220484      1.05273402
    H     13.50273856      5.58129060      2.86266864      1.05115826
    H      9.65200756      5.57258830      2.86156837      1.05363343
    H      5.80127657      5.58129060      2.86266861      1.05115827
    H     21.23102858      5.58295586      2.86220483      1.05273403
    H     15.41526206      2.24517170      2.86143714      1.05463449
    H     11.56983662      2.23340629      2.86266858      1.05115829
    H      7.73417850      2.23340629      2.86266849      1.05115830
    H      3.88875307      2.24517170      2.86143702      1.05463451
    H     19.30401513      2.23743475      2.86049073      1.06008669
   Si     23.16481815     15.60324966      4.36424935      3.90912056
   Si     19.30401513     15.60324966      4.36424935      3.90957532
   Si     15.44321210     15.60324966      4.36424935      3.90912054
   Si     11.58240908     15.60324966      4.36424935      3.89921713
   Si     27.02562118     15.60324966      4.36424935      3.89921714
   Si     21.23441664     12.25969616      4.36424935      3.90788007
   Si     17.37361361     12.25969616      4.36424935      3.90788006
   Si     13.51281059     12.25969616      4.36424935      3.90912053
   Si      9.65200756     12.25969616      4.36424935      3.91786104
   Si     25.09521966     12.25969616      4.36424935      3.90912055
   Si     19.30401513      8.91614266      4.36424935      3.90788009
   Si     15.44321210      8.91614266      4.36424935      3.90957532
   Si     11.58240908      8.91614266      4.36424935      3.90958623
   Si      7.72160605      8.91614266      4.36424935      3.90958623
   Si     23.16481815      8.91614266      4.36424935      3.90957532
   Si     17.37361361      5.57258916      4.36424935      3.90912057
   Si     13.51281059      5.57258916      4.36424935      3.90958625
   Si      9.65200756      5.57258916      4.36424935      3.91165908
   Si      5.79120454      5.57258916      4.36424935      3.90958624
   Si     21.23441664      5.57258916      4.36424935      3.90912057
   Si     15.44321210      2.22903567      4.36424935      3.91786105
   Si     11.58240908      2.22903567      4.36424935      3.90958626
   Si      7.72160605      2.22903567      4.36424935      3.90958624
   Si      3.86080303      2.22903567      4.36424935      3.91786104
   Si     19.30401513      2.22903567      4.36424935      3.89921713
   Si     21.23441664     14.48873183      5.15233247      4.03613838
   Si     17.37361361     14.48873183      5.15233247      4.03613846
   Si     13.51281059     14.48873183      5.15233247      4.03685921
   Si      9.65200756     14.48873183      5.15233247      4.01868921
   Si     25.09521966     14.48873183      5.15233247      4.03685914
   Si     19.30401513     11.14517833      5.15233247      4.02357927
   Si     15.44321210     11.14517833      5.15233247      4.03613853
   Si     11.58240908     11.14517833      5.15233247      4.03554384
   Si      7.72160605     11.14517833      5.15233247      4.03554384
   Si     23.16481815     11.14517833      5.15233247      4.03613846
   Si     17.37361361      7.80162483      5.15233247      4.03613856
   Si     13.51281059      7.80162483      5.15233247      4.02018824
   Si      9.65200756      7.80162483      5.15233247      4.03553412
   Si      5.79120454      7.80162483      5.15233247      4.02018824
   Si     21.23441664      7.80162483      5.15233247      4.03613855
   Si     15.44321210      4.45807133      5.15233247      4.03554387
   Si     11.58240908      4.45807133      5.15233247      4.03553410
   Si      7.72160605      4.45807133      5.15233247      4.03553413
   Si      3.86080303      4.45807133      5.15233247      4.03554390
   Si     19.30401513      4.45807133      5.15233247      4.03685925
   Si     13.51281059      1.11451783      5.15233247      4.03554379
   Si      9.65200756      1.11451783      5.15233247      4.02018813
   Si      5.79120454      1.11451783      5.15233247      4.03554382
   Si      1.93040151      1.11451783      5.15233247      4.01868933
   Si     17.37361361      1.11451783      5.15233247      4.01868933
   Si     21.23441664     14.48873183      7.51658182      4.00911164
   Si     17.37361361     14.48873183      7.51658182      4.00911159
   Si     13.51281059     14.48873183      7.51658182      4.00384396
   Si      9.65200756     14.48873183      7.51658182      3.98393214
   Si     25.09521966     14.48873183      7.51658182      4.00384398
   Si     19.30401513     11.14517833      7.51658182      4.01844562
   Si     15.44321210     11.14517833      7.51658182      4.00911145
   Si     11.58240908     11.14517833      7.51658182      4.03597881
   Si      7.72160605     11.14517833      7.51658182      4.03597874
   Si     23.16481815     11.14517833      7.51658182      4.00911149
   Si     17.37361361      7.80162483      7.51658182      4.00911170
   Si     13.51281059      7.80162483      7.51658182      3.98899735
   Si      9.65200756      7.80162483      7.51658182      4.01039871
   Si      5.79120454      7.80162483      7.51658182      3.98899735
   Si     21.23441664      7.80162483      7.51658182      4.00911169
   Si     15.44321210      4.45807133      7.51658182      4.03597867
   Si     11.58240908      4.45807133      7.51658182      4.01039886
   Si      7.72160605      4.45807133      7.51658182      4.01039882
   Si      3.86080303      4.45807133      7.51658182      4.03597866
   Si     19.30401513      4.45807133      7.51658182      4.00384383
   Si     13.51281059      1.11451783      7.51658182      4.03597857
   Si      9.65200756      1.11451783      7.51658182      3.98899756
   Si      5.79120454      1.11451783      7.51658182      4.03597863
   Si      1.93040151      1.11451783      7.51658182      3.98393173
   Si     17.37361361      1.11451783      7.51658182      3.98393170
   Si     23.16468754     13.37413989      8.06399230      3.90147481
   Si     19.30401530     13.37467445      8.39879007      4.00782172
   Si     15.44334274     13.37413993      8.06399105      3.90147463
   Si     11.58281404     13.35217084      8.34702910      3.99244545
   Si      7.72120080     13.35217077      8.34702927      3.99244550
   Si     21.23481401     10.03043284      8.39878929      4.00782171
   Si     17.37321646     10.03043276      8.39878917      4.00782163
   Si     13.49567949     10.05934807      8.37886372      4.01946957
   Si      9.65200746     10.03304155      8.04781884      3.88110483
   Si      5.80833560     10.05934834      8.37886393      4.01946964
   Si     19.30401518      6.68725929      8.06399116      3.90147438
   Si     15.45948979      6.65792947      8.37886350      4.01946951
   Si     11.59359894      6.69356892      8.39824187      4.01356598
   Si      7.71041615      6.69356901      8.39824186      4.01356598
   Si      3.84452534      6.65792961      8.37886352      4.01946952
   Si     17.35472454      3.35492848      8.34702913      3.99244574
   Si     13.51487151      3.34236521      8.04781884      3.88110509
   Si      9.65200762      3.33063431      8.39824243      4.01356589
   Si      5.78914362      3.34236533      8.04781837      3.88110504
   Si      1.94929048      3.35492849      8.34702908      3.99244573
   Si     15.42391822      0.01067353      8.34702990      3.99244561
   Si     11.61581757      0.00049459      8.37886472      4.01946950
   Si      7.68819788      0.00049469      8.37886453      4.01946944
   Si      3.88009666      0.01067364      8.34702969      3.99244554
   Si     -0.00000012      0.00000218      8.56947901      4.29763436
   Si     23.11857758     13.34751726     10.33717447      4.04575574
   Si     19.30401533     13.35338968     10.84246531      3.91087305
   Si     15.48945278     13.34751722     10.33717338      4.04575637
   Si     11.91350641     12.81809566     10.67245989      3.93376822
   Si      7.39050851     12.81809566     10.67246004      3.93376832
   Si     21.21638111     10.04107599     10.84246374      3.91087244
   Si     17.39164923     10.04107580     10.84246348      3.91087235
   Si     13.15129145     10.67826587     10.70473178      3.96885125
   Si      9.65200762      9.97667494     10.31192622      4.04038746
   Si      6.15272359     10.67826612     10.70473201      3.96885132
   Si     19.30401514      6.74050371     10.33717212      4.04575603
   Si     15.82329616      6.05022253     10.70473099      3.96885137
   Si     11.56554077      6.67736781     10.83422961      3.91477514
   Si      7.73847455      6.67736783     10.83422959      3.91477508
   Si      3.48071885      6.05022254     10.70473100      3.96885137
   Si     17.05754691      3.90835320     10.67245922      3.93376837
   Si     13.46605807      3.37054868     10.31192550      4.04038695
   Si      9.65200767      3.36303330     10.83423071      3.91477590
   Si      5.83795709      3.37054864     10.31192526      4.04038724
   Si      2.24646803      3.90835312     10.67245922      3.93376834
   Si     14.79605111     -0.00867556     10.67246145      3.93376943
   Si     12.32400872     -0.01071647     10.70473384      3.96885284
   Si      6.98000654     -0.01071637     10.70473363      3.96885277
   Si      4.50796375     -0.00867550     10.67246130      3.93376930
   Si     21.38025958     14.47996771     11.50662894      4.05022713
   Si     17.22777134     14.47996793     11.50662876      4.05022737
   Si     13.65687934     14.40555370     11.49534436      4.06594244
   Si     24.95115007     14.40555331     11.49534455      4.06594222
   Si      9.65200758     12.09373714     11.45583503      4.05848026
   Si     19.30401506     11.14517727     11.91100012      4.24426393
   Si     15.37788004     11.27586137     11.50662924      4.05022871
   Si     11.50512583      9.04555979     11.47413057      4.04395048
   Si      7.79888949      9.04555995     11.47413051      4.04395053
   Si     23.23015021     11.27586213     11.50662945      4.05022843
   Si     17.45412343      7.67970405     11.50662686      4.05022766
   Si     13.58624659      5.44095479     11.47413068      4.04395092
   Si      9.65200764      5.57259250     11.90316881      4.24136234
   Si      5.71776857      5.44095490     11.47413076      4.04395112
   Si     21.15390669      7.67970414     11.50662689      4.05022763
   Si     15.29948480      2.31202104     11.45583448      4.05847889
   Si     11.73312927      2.23126232     11.47413053      4.04394951
   Si      7.57088620      2.23126221     11.47413067      4.04394965
   Si      4.00452993      2.31202080     11.45583459      4.05847900
   Si     19.30401504      4.62442908     11.49534291      4.06594315
   Si      5.78488628      3.33990832     12.86785907      3.92634729
   Si     13.51912885      3.33990855     12.86785845      3.92634724
   Si      9.65200776     10.03795553     12.86785847      3.92634670
   Si     19.30401507      6.68429199     12.90580683      3.91994184
   Si     15.44077178     13.37562365     12.90581245      3.91994237
   Si     23.16725846     13.37562371     12.90581165      3.91994221
