36

Pd      1.393000358937498      1.393000358937498     -6.910000000000000
Pd      4.179001076812495      1.393000358937498     -6.910000000000000
Pd      6.965001794687492      1.393000358937498     -6.910000000000000
Pd      1.393000358937498      4.179001076812495     -6.910000000000000
Pd      4.179001076812495      4.179001076812495     -6.910000000000000
Pd      6.965001794687492      4.179001076812495     -6.910000000000000
Pd      1.393000358937498      6.965001794687492     -6.910000000000000
Pd      4.179001076812495      6.965001794687492     -6.910000000000000
Pd      6.965001794687492      6.965001794687492     -6.910000000000000
Pd      0.000000000000000      0.000000000000000     -4.940000000000000
Pd      2.786000717874997      0.000000000000000     -4.940000000000000
Pd      5.572001435749994      0.000000000000000     -4.940000000000000
Pd      0.000000000000000      2.786000717874997     -4.940000000000000
Pd      2.786000717874997      2.786000717874997     -4.940000000000000
Pd      5.572001435749994      2.786000717874997     -4.940000000000000
Pd      0.000000000000000      5.572001435749994     -4.940000000000000
Pd      2.786000717874997      5.572001435749994     -4.940000000000000
Pd      5.572001435749994      5.572001435749994     -4.940000000000000
Pd      1.393000358937498      1.393000358937498     -2.970000000000001
Pd      4.179001076812495      1.393000358937498     -2.970000000000001
Pd      6.965001794687492      1.393000358937498     -2.970000000000001
Pd      1.393000358937498      4.179001076812495     -2.970000000000001
Pd      4.179001076812495      4.179001076812495     -2.970000000000001
Pd      6.965001794687492      4.179001076812495     -2.970000000000001
Pd      1.393000358937498      6.965001794687492     -2.970000000000001
Pd      4.179001076812495      6.965001794687492     -2.970000000000001
Pd      6.965001794687492      6.965001794687492     -2.970000000000001
Pd      0.000000000000000      0.000000000000000     -1.000000000000000
Pd      2.786000717874997      0.000000000000000     -1.000000000000000
Pd      5.572001435749994      0.000000000000000     -1.000000000000000
Pd      0.000000000000000      2.786000717874997     -1.000000000000000
Pd      2.786000717874997      2.786000717874997     -1.000000000000000
Pd      5.572001435749994      2.786000717874997     -1.000000000000000
Pd      0.000000000000000      5.572001435749994     -1.000000000000000
Pd      2.786000717874997      5.572001435749994     -1.000000000000000
Pd      5.572001435749994      5.572001435749994     -1.000000000000000
