  175
Geometry Step: 0
    H     23.15737821     15.59514460      2.86227201      1.05272296
    H     19.30401513     15.61427158      2.86195166      1.05378871
    H     15.45065204     15.59514460      2.86227155      1.05272307
    H     11.58999712     15.59886785      2.86056038      1.06026430
    H     27.01803314     15.59886785      2.86056064      1.06026425
    H     21.23601180     12.26061612      2.86246206      1.05214428
    H     17.37201845     12.26061613      2.86246196      1.05214430
    H     13.52354899     12.25730422      2.86227178      1.05272299
    H      9.65200756     12.22687022      2.86147116      1.05472641
    H     25.08448127     12.25730421      2.86227191      1.05272295
    H     19.30401514      8.91429970      2.86246179      1.05214433
    H     15.43366616      8.91063034      2.86195165      1.05378869
    H     11.58483174      8.90303998      2.86274898      1.05111507
    H      7.71918338      8.90303998      2.86274884      1.05111509
    H     23.17436410      8.91063033      2.86195145      1.05378872
    H     17.37691214      5.58308354      2.86227161      1.05272304
    H     13.50267549      5.58123724      2.86274900      1.05111508
    H      9.65200757      5.57258830      2.86173683      1.05340708
    H      5.80133964      5.58123724      2.86274840      1.05111520
    H     21.23111812      5.58308354      2.86227128      1.05272311
    H     15.41478479      2.24544730      2.86147117      1.05472644
    H     11.56985129      2.23348759      2.86274899      1.05111510
    H      7.73416383      2.23348759      2.86274853      1.05111520
    H      3.88923035      2.24544731      2.86147051      1.05472659
    H     19.30401513      2.23779693      2.86056028      1.06026434
   Si     23.16481815     15.60324966      4.36424935      3.90914133
   Si     19.30401513     15.60324966      4.36424935      3.90968655
   Si     15.44321210     15.60324966      4.36424935      3.90914128
   Si     11.58240908     15.60324966      4.36424935      3.89884981
   Si     27.02562118     15.60324966      4.36424935      3.89884984
   Si     21.23441664     12.25969616      4.36424935      3.90799916
   Si     17.37361361     12.25969616      4.36424935      3.90799916
   Si     13.51281059     12.25969616      4.36424935      3.90914136
   Si      9.65200756     12.25969616      4.36424935      3.91801172
   Si     25.09521966     12.25969616      4.36424935      3.90914136
   Si     19.30401513      8.91614266      4.36424935      3.90799916
   Si     15.44321210      8.91614266      4.36424935      3.90968657
   Si     11.58240908      8.91614266      4.36424935      3.90969738
   Si      7.72160605      8.91614266      4.36424935      3.90969736
   Si     23.16481815      8.91614266      4.36424935      3.90968655
   Si     17.37361361      5.57258916      4.36424935      3.90914130
   Si     13.51281059      5.57258916      4.36424935      3.90969735
   Si      9.65200756      5.57258916      4.36424935      3.91195012
   Si      5.79120454      5.57258916      4.36424935      3.90969722
   Si     21.23441664      5.57258916      4.36424935      3.90914126
   Si     15.44321210      2.22903567      4.36424935      3.91801166
   Si     11.58240908      2.22903567      4.36424935      3.90969733
   Si      7.72160605      2.22903567      4.36424935      3.90969722
   Si      3.86080303      2.22903567      4.36424935      3.91801155
   Si     19.30401513      2.22903567      4.36424935      3.89884977
   Si     21.23441664     14.48873183      5.15233247      4.03603115
   Si     17.37361361     14.48873183      5.15233247      4.03603116
   Si     13.51281059     14.48873183      5.15233247      4.03675600
   Si      9.65200756     14.48873183      5.15233247      4.01868161
   Si     25.09521966     14.48873183      5.15233247      4.03675601
   Si     19.30401513     11.14517833      5.15233247      4.02318929
   Si     15.44321210     11.14517833      5.15233247      4.03603126
   Si     11.58240908     11.14517833      5.15233247      4.03532287
   Si      7.72160605     11.14517833      5.15233247      4.03532283
   Si     23.16481815     11.14517833      5.15233247      4.03603121
   Si     17.37361361      7.80162483      5.15233247      4.03603132
   Si     13.51281059      7.80162483      5.15233247      4.02019712
   Si      9.65200756      7.80162483      5.15233247      4.03526027
   Si      5.79120454      7.80162483      5.15233247      4.02019712
   Si     21.23441664      7.80162483      5.15233247      4.03603128
   Si     15.44321210      4.45807133      5.15233247      4.03532274
   Si     11.58240908      4.45807133      5.15233247      4.03526007
   Si      7.72160605      4.45807133      5.15233247      4.03526015
   Si      3.86080303      4.45807133      5.15233247      4.03532274
   Si     19.30401513      4.45807133      5.15233247      4.03675606
   Si     13.51281059      1.11451783      5.15233247      4.03532266
   Si      9.65200756      1.11451783      5.15233247      4.02019700
   Si      5.79120454      1.11451783      5.15233247      4.03532269
   Si      1.93040151      1.11451783      5.15233247      4.01868168
   Si     17.37361361      1.11451783      5.15233247      4.01868170
   Si     21.23441664     14.48873183      7.51658182      4.00916046
   Si     17.37361361     14.48873183      7.51658182      4.00916037
   Si     13.51281059     14.48873183      7.51658182      4.00385701
   Si      9.65200756     14.48873183      7.51658182      3.98455684
   Si     25.09521966     14.48873183      7.51658182      4.00385709
   Si     19.30401513     11.14517833      7.51658182      4.01896606
   Si     15.44321210     11.14517833      7.51658182      4.00916027
   Si     11.58240908     11.14517833      7.51658182      4.03614418
   Si      7.72160605     11.14517833      7.51658182      4.03614418
   Si     23.16481815     11.14517833      7.51658182      4.00916045
   Si     17.37361361      7.80162483      7.51658182      4.00916024
   Si     13.51281059      7.80162483      7.51658182      3.98918224
   Si      9.65200756      7.80162483      7.51658182      4.01056626
   Si      5.79120454      7.80162483      7.51658182      3.98918209
   Si     21.23441664      7.80162483      7.51658182      4.00916033
   Si     15.44321210      4.45807133      7.51658182      4.03614386
   Si     11.58240908      4.45807133      7.51658182      4.01056613
   Si      7.72160605      4.45807133      7.51658182      4.01056580
   Si      3.86080303      4.45807133      7.51658182      4.03614379
   Si     19.30401513      4.45807133      7.51658182      4.00385653
   Si     13.51281059      1.11451783      7.51658182      4.03614358
   Si      9.65200756      1.11451783      7.51658182      3.98918222
   Si      5.79120454      1.11451783      7.51658182      4.03614351
   Si      1.93040151      1.11451783      7.51658182      3.98455627
   Si     17.37361361      1.11451783      7.51658182      3.98455628
   Si     23.16437866     13.37396187      8.06357444      3.90172885
   Si     19.30401552     13.37518252      8.39793046      4.00707238
   Si     15.44365170     13.37396164      8.06357329      3.90172758
   Si     11.58258615     13.35196430      8.34771003      3.99209585
   Si      7.72142837     13.35196442      8.34771016      3.99209601
   Si     21.23525404     10.03017936      8.39792955      4.00707227
   Si     17.37277644     10.03017904      8.39792936      4.00707212
   Si     13.49536272     10.05948504      8.37933119      4.01937822
   Si      9.65200753     10.03268098      8.04743766      3.88118202
   Si      5.80865227     10.05948561      8.37933148      4.01937837
   Si     19.30401499      6.68761596      8.06357194      3.90172638
   Si     15.45944969      6.65758692      8.37933067      4.01937805
   Si     11.59372598      6.69364223      8.39764553      4.01305900
   Si      7.71028955      6.69364269      8.39764538      4.01305875
   Si      3.84456550      6.65758797      8.37933051      4.01937784
   Si     17.35443170      3.35483392      8.34770972      3.99209594
   Si     13.51455898      3.34254526      8.04743727      3.88118095
   Si      9.65200816      3.33048754      8.39764601      4.01305852
   Si      5.78945629      3.34254538      8.04743564      3.88117956
   Si      1.94958241      3.35483360      8.34770943      3.99209564
   Si     15.42385308      0.01097378      8.34771087      3.99209602
   Si     11.61609481      0.00070021      8.37933226      4.01937814
   Si      7.68792169      0.00070013      8.37933180      4.01937777
   Si      3.88016107      0.01097364      8.34771046      3.99209555
   Si     -0.00000058      0.00000186      8.57370167      4.30158743
   Si     23.11866538     13.34756834     10.33745929      4.04554443
   Si     19.30401596     13.35417968     10.84214513      3.91151594
   Si     15.48936504     13.34756787     10.33745867      4.04554498
   Si     11.91347089     12.81829805     10.67253229      3.93322229
   Si      7.39054332     12.81829861     10.67253239      3.93322259
   Si     21.21706521     10.04068186     10.84214350      3.91151501
   Si     17.39096552     10.04068117     10.84214327      3.91151470
   Si     13.15123661     10.67807194     10.70435015      3.96870623
   Si      9.65200778      9.97661337     10.31207139      4.04019369
   Si      6.15277816     10.67807263     10.70435046      3.96870636
   Si     19.30401481      6.74040296     10.33745690      4.04554517
   Si     15.82310035      6.05027203     10.70434951      3.96870559
   Si     11.56595013      6.67760414     10.83391896      3.91514278
   Si      7.73806624      6.67760476     10.83391891      3.91514222
   Si      3.48091399      6.05027296     10.70434983      3.96870508
   Si     17.05770414      3.90822093     10.67253191      3.93322137
   Si     13.46600447      3.37057977     10.31207110      4.04019217
   Si      9.65200872      3.36256100     10.83392010      3.91514268
   Si      5.83801115      3.37057981     10.31206897      4.04019381
   Si      2.24630915      3.90822110     10.67253236      3.93322076
   Si     14.79624393     -0.00874696     10.67253362      3.93322313
   Si     12.32386829     -0.01057242     10.70435213      3.96870746
   Si      6.98014767     -0.01057290     10.70435215      3.96870682
   Si      4.50777045     -0.00874756     10.67253397      3.93322221
   Si     21.38026828     14.47995111     11.50589444      4.05015137
   Si     17.22776350     14.47995067     11.50589533      4.05015046
   Si     13.65684229     14.40557417     11.49526423      4.06605214
   Si     24.95118651     14.40557444     11.49526313      4.06605299
   Si      9.65200712     12.09387813     11.45553736      4.05857856
   Si     19.30401523     11.14517792     11.91010688      4.24378641
   Si     15.37789000     11.27587687     11.50589561      4.05015230
   Si     11.50525867      9.04551756     11.47354421      4.04400212
   Si      7.79875635      9.04551839     11.47354450      4.04400211
   Si     23.23014025     11.27587793     11.50589523      4.05015288
   Si     17.45414044      7.67970612     11.50589306      4.05015047
   Si     13.58627624      5.44109079     11.47354402      4.04400034
   Si      9.65200836      5.57259253     11.90236739      4.24106159
   Si      5.71773914      5.44109359     11.47354585      4.04400040
   Si     21.15388929      7.67970713     11.50589357      4.05015015
   Si     15.29960649      2.31194986     11.45553673      4.05857514
   Si     11.73302716      2.23116797     11.47354402      4.04399866
   Si      7.57099118      2.23116730     11.47354556      4.04399872
   Si      4.00440553      2.31194858     11.45553851      4.05857492
   Si     19.30401418      4.62438414     11.49526251      4.06605228
   Si      5.78480120      3.33985896     12.86748683      3.92667949
   Si     13.51921423      3.33985906     12.86748057      3.92668088
   Si      9.65200780     10.03805425     12.86748098      3.92668282
   Si     19.30401491      6.68429905     12.90599588      3.92029901
   Si     15.44077761     13.37562048     12.90599856      3.92030039
   Si     23.16725275     13.37562079     12.90599607      3.92030205
