   61
Geometry Step: 0
    H     11.58240908      8.90630932      2.86193171      1.05561303
    H      7.71850805      8.91793037      2.86125925      1.05923584
    H     15.44631011      8.91793037      2.86125925      1.06317719
    H      9.66052267      5.57750442      2.86193170      1.04895855
    H      5.79120454      5.56194977      2.86140756      1.05593054
    H     13.50429548      5.57750442      2.86193170      1.05251970
    H      7.71239285      2.23435394      2.86140755      1.05331801
    H      3.87001622      2.23435394      2.86140755      1.05368379
    H     11.58240908      2.22545752      2.86125925      1.05739029
   Si     11.58240908      8.91614266      4.36424935      3.91804706
   Si      7.72160605      8.91614266      4.36424935      3.90140829
   Si     15.44321210      8.91614266      4.36424935      3.91768847
   Si      9.65200756      5.57258916      4.36424935      3.90231898
   Si      5.79120454      5.57258916      4.36424935      3.90992550
   Si     13.51281059      5.57258916      4.36424935      3.90563809
   Si      7.72160605      2.22903567      4.36424935      3.91027694
   Si      3.86080303      2.22903567      4.36424935      3.90347545
   Si     11.58240908      2.22903567      4.36424935      3.91180525
   Si      9.65200756      7.80162483      5.15233247      4.03021323
   Si      5.79120454      7.80162483      5.15233247      4.03019309
   Si     13.51281059      7.80162483      5.15233247      4.00258491
   Si      7.72160605      4.45807133      5.15233247      4.01758532
   Si      3.86080303      4.45807133      5.15233247      4.02860815
   Si     11.58240908      4.45807133      5.15233247      4.02779889
   Si      5.79120454      1.11451783      5.15233247      4.02599914
   Si      1.93040151      1.11451783      5.15233247      4.02116370
   Si      9.65200756      1.11451783      5.15233247      4.02186266
   Si      9.48836427      8.02896443      7.41301584      3.98035729
   Si      5.59716907      7.99194361      7.53801547      3.94432015
   Si     13.75849618      7.95015766      7.36393319      4.01240481
   Si      7.64832267      4.58352410      7.33589378      3.98261345
   Si      3.85778127      4.60467375      7.57796267      3.96322230
   Si     11.70347196      4.11598450      7.52657874      3.99245561
   Si      5.77167571      1.08812432      7.56101158      3.98477749
   Si      1.91686857      1.11918384      7.55243885      4.00796032
   Si      9.70825341      1.03092441      7.50628315      3.96137905
   Si     11.85053551      7.56525898      8.64843362      3.96955422
   Si      7.53696685      6.81961431      8.09751464      4.01334110
   Si      3.81055065      6.81362150      8.62253084      4.12421950
   Si      9.48880327      3.25490698      8.15381510      3.98802145
   Si      5.82249475      3.38404902      8.19499796      4.06509079
   Si      2.18917149      3.24642967      8.58128412      3.96049283
   Si      7.79266279      0.04446613      8.40746143      4.06059667
   Si      3.80316093      0.08246305      8.66142146      4.01926734
   Si      0.01871079      0.09013972      8.59410861      4.20406886
   Si     13.80192111      8.42660486     10.27293042      3.86351435
   Si      8.72430616      6.00626110     10.04158960      4.09189653
   Si      4.73322566      7.17861911     13.99130299      4.11315406
   Si      7.64888227      3.24707025      9.87958994      3.93975930
   Si      6.89858315      4.51409036     11.71878448      3.99256533
   Si      3.25973210      5.41543890     13.40677624      3.98302339
   Si      9.74508365      0.71967100     12.62171607      3.96734315
   Si      3.27968092      2.29594088     10.75647566      4.01075450
   Si     12.72268324      8.34544890     13.23896354      4.01626626
   Si     14.98327864      8.57486263     12.48936049      3.99383679
   Si      9.28796452      8.41916485     10.68304688      3.98302417
   Si      4.68553982      1.54618229     12.39893495      3.98754528
   Si      4.62551257      3.92548644     12.16879847      4.04257635
   Si     10.40853124      5.85106249      8.31612845      3.96439299
   Si      6.38035365      6.57347611     12.43340991      3.89647050
   Si     11.57383398      8.64247535     11.29301329      4.03331375
