   61
Geometry Step: 0
    H     11.58240908      8.90630932      2.86193171      1.05340554
    H      7.71850805      8.91793037      2.86125925      1.05494911
    H     15.44631011      8.91793037      2.86125925      1.05836471
    H      9.66052267      5.57750442      2.86193170      1.05463907
    H      5.79120454      5.56194977      2.86140756      1.05763459
    H     13.50429548      5.57750442      2.86193170      1.05896364
    H      7.71239285      2.23435394      2.86140755      1.05345745
    H      3.87001622      2.23435394      2.86140755      1.05641980
    H     11.58240908      2.22545752      2.86125925      1.05705325
   Si     11.58240908      8.91614266      4.36424935      3.89700939
   Si      7.72160605      8.91614266      4.36424935      3.89701369
   Si     15.44321210      8.91614266      4.36424935      3.90385637
   Si      9.65200756      5.57258916      4.36424935      3.90484059
   Si      5.79120454      5.57258916      4.36424935      3.90582462
   Si     13.51281059      5.57258916      4.36424935      3.90739059
   Si      7.72160605      2.22903567      4.36424935      3.90259057
   Si      3.86080303      2.22903567      4.36424935      3.90983780
   Si     11.58240908      2.22903567      4.36424935      3.90540429
   Si      9.65200756      7.80162483      5.15233247      4.03973718
   Si      5.79120454      7.80162483      5.15233247      4.02008809
   Si     13.51281059      7.80162483      5.15233247      4.02397004
   Si      7.72160605      4.45807133      5.15233247      4.03219992
   Si      3.86080303      4.45807133      5.15233247      4.01603801
   Si     11.58240908      4.45807133      5.15233247      4.02692692
   Si      5.79120454      1.11451783      5.15233247      4.03151529
   Si      1.93040151      1.11451783      5.15233247      4.02921394
   Si      9.65200756      1.11451783      5.15233247      4.03150485
   Si      9.60707008      7.83342594      7.60570668      3.99904303
   Si      5.69268922      7.78560860      7.59023322      3.98417941
   Si     13.50975289      7.80050749      7.49205279      3.97197903
   Si      7.68289572      4.46658768      7.56412248      3.97806025
   Si      3.77635610      4.53250905      7.42116318      4.01058409
   Si     11.51801653      4.46168282      7.48076570      3.99415361
   Si      5.74181102      1.21366046      7.46879532      3.98209513
   Si      1.81612121      1.15649923      7.56385793      3.97866894
   Si      9.67529598      1.03710167      7.54981123      3.97727523
   Si     11.61960397      6.67485813      8.29343708      4.02738116
   Si      7.63203321      6.70101762      8.55708793      4.00247648
   Si      3.77794993      6.65387702      8.50842228      4.15260243
   Si      9.62783857      3.28811929      8.30168215      3.99703548
   Si      5.65139660      3.44516388      8.34000077      4.04680394
   Si      1.88246968      3.43557683      8.30628202      3.99980043
   Si      7.62396155      0.02595998      8.24957592      3.99325702
   Si      3.81811049      0.12674199      8.28532097      4.01281909
   Si      0.00857749     -0.05843153      8.57579887      4.13105394
   Si     10.56471223      5.30859326     11.43422244      3.98639812
   Si      7.09468180      5.00053847     10.68935803      3.90267265
   Si      2.27668381      4.39066120     10.48350213      3.90619357
   Si      7.74764365      2.70673539     11.21438083      4.02061807
   Si      4.06558518      2.34669529     11.58831891      3.90422846
   Si      1.73050294      3.52408890     12.60808560      4.02484071
   Si      7.71184138     -1.56527385     11.47919298      3.99688790
   Si      2.27387099     -1.38827809     10.41079126      3.92045632
   Si      8.60142736      6.62671207     11.59401422      4.00419893
   Si     12.44964713      6.45611841     10.58276816      3.99029608
   Si      4.74849355      4.39510272     10.42140048      3.97376303
   Si      6.76711914      0.40593663     10.49085942      3.97359563
   Si      4.26267335      0.16068856     10.62510879      4.06818988
   Si     10.08394958      3.04672814     10.65956399      4.12410620
   Si      3.37281032      2.63135882     13.82950869      4.07692126
   Si     11.53749923      4.61311899     13.47150118      3.99751517
