   61
Geometry Step: 0
    H     11.58240908      8.90630932      2.86193171      1.05221996
    H      7.71850805      8.91793037      2.86125925      1.05371242
    H     15.44631011      8.91793037      2.86125925      1.05890687
    H      9.66052267      5.57750442      2.86193170      1.05511481
    H      5.79120454      5.56194977      2.86140756      1.05849944
    H     13.50429548      5.57750442      2.86193170      1.05921477
    H      7.71239285      2.23435394      2.86140755      1.05085627
    H      3.87001622      2.23435394      2.86140755      1.05089395
    H     11.58240908      2.22545752      2.86125925      1.05368331
   Si     11.58240908      8.91614266      4.36424935      3.91511081
   Si      7.72160605      8.91614266      4.36424935      3.89472770
   Si     15.44321210      8.91614266      4.36424935      3.90459316
   Si      9.65200756      5.57258916      4.36424935      3.89534059
   Si      5.79120454      5.57258916      4.36424935      3.90095774
   Si     13.51281059      5.57258916      4.36424935      3.90918133
   Si      7.72160605      2.22903567      4.36424935      3.90247783
   Si      3.86080303      2.22903567      4.36424935      3.91504638
   Si     11.58240908      2.22903567      4.36424935      3.89950652
   Si      9.65200756      7.80162483      5.15233247      4.03524344
   Si      5.79120454      7.80162483      5.15233247      4.03414553
   Si     13.51281059      7.80162483      5.15233247      4.01997830
   Si      7.72160605      4.45807133      5.15233247      4.03826982
   Si      3.86080303      4.45807133      5.15233247      4.03152441
   Si     11.58240908      4.45807133      5.15233247      4.03472063
   Si      5.79120454      1.11451783      5.15233247      4.03736707
   Si      1.93040151      1.11451783      5.15233247      4.03996042
   Si      9.65200756      1.11451783      5.15233247      4.04316951
   Si      9.66699895      7.77918254      7.55123116      3.92981795
   Si      5.74810200      7.86848407      7.64951717      3.97514448
   Si     13.54893314      7.68698715      7.50584932      4.02445904
   Si      7.66581704      4.63872032      7.48147993      4.00443087
   Si      3.83028640      4.39326432      7.54920129      4.00580854
   Si     11.60544416      4.49545639      7.50622429      4.01240966
   Si      5.95930946      1.13089627      7.44736885      3.89904255
   Si      1.74799520      1.24662107      7.48408181      3.85783781
   Si      9.63974185      1.04547450      7.57316551      3.97687548
   Si     11.61098810      6.68966510      8.41594373      4.02332933
   Si      7.72615921      6.81283595      8.60747154      4.14166307
   Si      3.80659699      6.55424137      8.56077639      4.07683966
   Si      9.58923662      3.38210074      7.95008019      4.00603470
   Si      5.84131870      3.32913744      8.26027317      3.97348229
   Si      1.84132627      3.41423271      8.60569149      4.00924100
   Si      7.69008252     -0.16004900      8.41076299      4.00019981
   Si      3.93229569     -0.05665121      8.46442873      3.98716159
   Si      0.00452305      0.10442062      8.63423780      4.15862713
   Si      9.46510491      4.07039028     10.13673184      3.95738072
   Si      7.30880198      4.77114407     11.11158382      4.01255978
   Si      2.47631981      5.07419799     10.50877989      3.90981998
   Si      8.37294570      2.35746810     11.53888663      4.02104073
   Si      5.00239415      2.24065821     12.40582255      4.04014245
   Si      1.19739269      2.08701737     10.67753824      3.98901996
   Si      6.96143686     -0.90422236     10.74890510      3.98828717
   Si      3.32630815     -1.40494260     10.91608403      3.93276589
   Si      9.81648005      6.26379343     11.25702879      3.93457437
   Si     12.18468733      6.67969953     10.74122589      4.03724893
   Si      2.81684351      3.23575003     12.17614707      4.05187375
   Si      5.24132293     -0.21065875     12.15749083      4.06411928
   Si      3.76882028      0.80293265      8.78363580      4.10526365
   Si     11.22287580      3.68014207     11.64888807      3.98151170
   Si      6.15791444      2.68611130     10.49917938      3.95616317
   Si      9.10696872      4.34694810     12.94382958      4.01140049
