   61
Geometry Step: 0
    H     11.58240908      8.90630932      2.86193171      1.05413432
    H      7.71850805      8.91793037      2.86125925      1.05697939
    H     15.44631011      8.91793037      2.86125925      1.05606865
    H      9.66052267      5.57750442      2.86193170      1.05706202
    H      5.79120454      5.56194977      2.86140756      1.05524211
    H     13.50429548      5.57750442      2.86193170      1.05557145
    H      7.71239285      2.23435394      2.86140755      1.05415385
    H      3.87001622      2.23435394      2.86140755      1.05534824
    H     11.58240908      2.22545752      2.86125925      1.05859285
   Si     11.58240908      8.91614266      4.36424935      3.89954090
   Si      7.72160605      8.91614266      4.36424935      3.90834727
   Si     15.44321210      8.91614266      4.36424935      3.90159121
   Si      9.65200756      5.57258916      4.36424935      3.91515403
   Si      5.79120454      5.57258916      4.36424935      3.91245470
   Si     13.51281059      5.57258916      4.36424935      3.90034196
   Si      7.72160605      2.22903567      4.36424935      3.89490509
   Si      3.86080303      2.22903567      4.36424935      3.90035668
   Si     11.58240908      2.22903567      4.36424935      3.90622848
   Si      9.65200756      7.80162483      5.15233247      4.01902140
   Si      5.79120454      7.80162483      5.15233247      4.01612955
   Si     13.51281059      7.80162483      5.15233247      4.03520934
   Si      7.72160605      4.45807133      5.15233247      4.02401034
   Si      3.86080303      4.45807133      5.15233247      4.02719121
   Si     11.58240908      4.45807133      5.15233247      4.02326668
   Si      5.79120454      1.11451783      5.15233247      4.03649997
   Si      1.93040151      1.11451783      5.15233247      4.01942878
   Si      9.65200756      1.11451783      5.15233247      4.03088448
   Si      9.52890862      7.74311670      7.43848813      4.02947105
   Si      5.73207013      7.66441785      7.54752321      4.00509257
   Si     13.45863620      7.83828806      7.52496449      3.98159672
   Si      7.71324713      4.45949132      7.47923492      3.99870304
   Si      3.70093001      4.44786660      7.55749308      3.98447593
   Si     11.53088440      4.35710628      7.53501110      3.97191201
   Si      5.81405437      1.13870513      7.52133556      3.96947600
   Si      1.91264514      1.04643781      7.56481049      3.97641356
   Si      9.78473499      1.03968589      7.56896282      3.99445153
   Si     11.49824352      6.66497590      8.12921622      4.01502399
   Si      7.70854747      6.64715143      8.57061566      3.98349842
   Si      3.72855867      6.70256278      8.47202232      4.00690688
   Si      9.54936639      3.27229607      8.40649086      4.01801395
   Si      5.72609784      3.44127939      8.27378846      4.02746247
   Si      1.84127972      3.26202386      8.49112445      4.14145495
   Si      7.75945609      0.07071306      8.32269728      4.02203511
   Si      3.89343469     -0.07893371      8.24147928      4.02368766
   Si      0.12461348     -0.21245362      8.53455420      4.08401016
   Si     11.30714562     10.62725207     11.68290027      4.00752554
   Si      9.74784705      9.11130862     10.50138414      3.96916841
   Si      3.41063508      7.17864254     10.96122342      3.98452633
   Si     11.04338998      6.96157128     10.43410511      3.96503896
   Si      6.54299496      4.48130146     10.35120250      3.91157217
   Si      1.34621197      6.01801833     11.69469681      4.00885883
   Si      8.69114232      3.29454107     10.72061563      4.09542845
   Si      7.63072998      0.88442935     10.58606352      3.96174852
   Si     11.03372290      7.76707581     12.98671181      3.92728106
   Si     14.33240689      9.30094452     12.07472077      3.98585686
   Si      7.31272364      8.24478338     10.53870208      3.95801277
   Si      9.00354526      5.87106800     10.73837924      3.93471097
   Si      5.72230689      6.49104861     11.72761708      4.03434480
   Si     12.40039666      5.98235380     13.93765351      4.01291911
   Si      8.58081308      7.12200204     12.74623159      4.05297865
   Si     12.41325196      9.60698313     13.57028458      4.08262762
